#n B3LYP/6-31G(d) Opt

 Title

0 1
C         -0.09826        0.67606        1.20386
C         -0.13572        1.34114       -0.01274
C         -0.06774        0.65615       -1.21691
C          0.04130       -0.72411       -1.19706
C          0.08430       -1.42538        0.01279
C          0.01108       -0.70431        1.20947
H         -0.15289        1.23887        2.12584
H         -0.09899        1.20373       -2.14910
H          0.09011       -1.27012       -2.13340
H          0.03637       -1.23477        2.15563
N         -0.24795        2.79603       -0.02613
O         -0.27687        3.35678       -1.11979
O         -0.30658        3.37451        1.05707
N          0.13498       -2.80898        0.02480
H          0.50405       -3.24470       -0.80782
H          0.48283       -3.23090        0.87350

