19
 Energy =   -1908.2741539149
 C    0.4082635   -1.1126836    0.0058810  0.00    0.0722454   -0.1775054    0.0013266
 C    1.6399541   -0.4973328    0.0085352  0.00   -0.0550261    0.0614856   -0.0005620
 C    1.7511362    0.8826581    0.0119631  0.00    0.2253752   -0.0633560    0.0026582
 C    0.6070281    1.6323062    0.0111628  0.00   -0.1781245    0.0084136    0.0009336
 C   -0.6687218    1.0436245    0.0077525  0.00    0.0091830   -0.0552212   -0.0214999
 C   -0.7597360   -0.3710346    0.0063631  0.00   -0.1565572    0.0995153    0.0023251
 H    0.3795479   -2.1888830    0.0041273  0.00   -0.0091778   -0.0640911   -0.0004218
 H    2.7273364    1.3430483    0.0138873  0.00    0.0407737    0.0245984   -0.0002025
 H    0.6728937    2.7126308    0.0143867  0.00    0.0026352    0.0467720   -0.0007617
 N    2.8431018   -1.3174524    0.0073057  0.00   -0.2377807    0.1542373    0.0000674
 O    3.9146424   -0.7439826    0.0101559  0.00    0.4211966    0.3082595    0.0014339
 O    2.7112087   -2.5250283    0.0034208  0.00   -0.1313308   -0.5061979   -0.0017282
 N   -1.7451103    1.8666267    0.0283682  0.00   -0.1017443    0.0335757    0.0599700
 H   -1.6002190    2.8542210   -0.0733880  0.00    0.0102265    0.0679490   -0.0179199
 H   -2.6777570    1.5277308   -0.1109165  0.00   -0.0660655   -0.0336529   -0.0212207
 C   -2.1029435   -1.0650553    0.0133591  0.00   -0.0310221   -0.0057371   -0.0024232
Cl   -3.0674039   -0.5960056   -1.4335218  0.00    0.0805712    0.0072710    0.0757784
Cl   -3.0420213   -0.6134762    1.4745730  0.00    0.0797762    0.0152879   -0.0781406
Cl   -1.9912000   -2.8319119   -0.0034155  0.00    0.0248461    0.0783963    0.0003875
19
 Energy =   -1908.2751998273
 C    0.4110436   -1.1234909    0.0087982  0.00    0.0398108   -0.0681607   -0.0025285
 C    1.6425743   -0.5025697    0.0074687  0.00   -0.0227107    0.0449150    0.0018393
 C    1.7542535    0.8801370    0.0016163  0.00    0.0776532   -0.0315362   -0.0023498
 C    0.6006300    1.6299639    0.0005889  0.00   -0.0747068   -0.0031831   -0.0119563
 C   -0.6762512    1.0417952    0.0094358  0.00    0.0301719   -0.0007122    0.0111659
 C   -0.7564371   -0.3713654    0.0051848  0.00   -0.0190416    0.0307951   -0.0042016
 H    0.3798035   -2.2026098    0.0128761  0.00   -0.0069769    0.0009154   -0.0041683
 H    2.7314149    1.3436781   -0.0038251  0.00   -0.0007108    0.0083592   -0.0009141
 H    0.6649577    2.7125859   -0.0077032  0.00    0.0095161    0.0115598    0.0087541
 N    2.8488524   -1.3238796    0.0114552  0.00   -0.0682741    0.0473242   -0.0003072
 O    3.9275758   -0.7395067    0.0105400  0.00    0.0730469    0.0308754   -0.0001207
 O    2.7101822   -2.5422514    0.0153749  0.00   -0.0027842   -0.0793082    0.0003894
 N   -1.7638956    1.8578442    0.0597286  0.00   -0.0233687    0.0325224    0.0228831
 H   -1.6293073    2.8491779   -0.0472118  0.00    0.0087583    0.0095561   -0.0193295
 H   -2.6970339    1.5091016   -0.0734180  0.00    0.0057984    0.0018532   -0.0191869
 C   -2.0949332   -1.0536091    0.0015801  0.00   -0.0469990   -0.0204898    0.0010810
Cl   -3.0246487   -0.5815382   -1.4583317  0.00    0.0220765   -0.0096248    0.0114171
Cl   -3.0370818   -0.5670947    1.4411332  0.00    0.0060135   -0.0352436    0.0044756
Cl   -1.9916991   -2.8163682    0.0047088  0.00   -0.0072727    0.0295829    0.0030575
19
 Energy =   -1908.2745898024
 C    0.4088492   -1.1261388   -0.0057894  0.00    0.0092556    0.0094979    0.0064886
 C    1.6399872   -0.5017962    0.0108908  0.00   -0.0006357    0.0128904   -0.0157294
 C    1.7543363    0.8805048    0.0469847  0.00   -0.0085681   -0.0057560    0.0143982
 C    0.5957490    1.6298745    0.0520700  0.00   -0.0018651   -0.0051847    0.0475610
 C   -0.6815864    1.0443732    0.0126088  0.00    0.0321510   -0.0043450   -0.1208274
 C   -0.7601598   -0.3700665    0.0142027  0.00    0.0354553    0.0118309    0.0212671
 H    0.3767617   -2.2055525   -0.0418026  0.00   -0.0024988    0.0235816    0.0262082
 H    2.7316582    1.3452924    0.0666961  0.00   -0.0170646   -0.0004332    0.0090006
 H    0.6603502    2.7126006    0.1030879  0.00    0.0075937   -0.0066679   -0.0403136
 N    2.8470118   -1.3237546   -0.0111531  0.00    0.0236795   -0.0149956   -0.0059486
 O    3.9301663   -0.7363895    0.0045203  0.00   -0.0836939   -0.0799018   -0.0011697
 O    2.7058396   -2.5468607   -0.0439285  0.00    0.0436745    0.1065937    0.0025792
 N   -1.7689559    1.8656586   -0.0359936  0.00    0.0004946    0.0324238    0.1350114
 H   -1.6178350    2.8513190   -0.1799894  0.00    0.0087315   -0.0187693    0.0029443
 H   -2.6874420    1.5144507   -0.2475482  0.00    0.0251411   -0.0004082    0.0001726
 C   -2.0955631   -1.0552678    0.0536610  0.00   -0.0247674   -0.0118124    0.0003971
Cl   -3.0860361   -0.5414041   -1.3462520  0.00   -0.0499455   -0.0631372   -0.0520266
Cl   -2.9667605   -0.6234385    1.5507617  0.00    0.0182774    0.0352005   -0.0192298
Cl   -1.9863705   -2.8134046   -0.0030271  0.00   -0.0154153   -0.0206074   -0.0107832
19
 Energy =   -1908.2753426827
 C    0.4085839   -1.1242198    0.0129501  0.00    0.0035696    0.0041103    0.0022923
 C    1.6398723   -0.5006121    0.0108844  0.00   -0.0046936    0.0072475   -0.0019080
 C    1.7558450    0.8811251    0.0173808  0.00    0.0051994   -0.0044799    0.0024072
 C    0.5986640    1.6305598    0.0166211  0.00   -0.0112272   -0.0023366    0.0049587
 C   -0.6791704    1.0457641    0.0155977  0.00    0.0308234   -0.0337625   -0.0288305
 C   -0.7611665   -0.3696035    0.0138435  0.00    0.0151163    0.0253237    0.0008731
 H    0.3766751   -2.2035111    0.0157881  0.00   -0.0009414    0.0110271   -0.0088574
 H    2.7330495    1.3454638    0.0230504  0.00   -0.0088258    0.0017502   -0.0089525
 H    0.6650979    2.7141179    0.0184750  0.00    0.0051103   -0.0042311    0.0032927
 N    2.8456495   -1.3233687   -0.0031721  0.00    0.0114433   -0.0093290    0.0129413
 O    3.9284501   -0.7388900   -0.0057731  0.00   -0.0357729   -0.0331196   -0.0012533
 O    2.7053374   -2.5451983   -0.0114928  0.00    0.0186092    0.0445909   -0.0011619
 N   -1.7630737    1.8713909    0.0446961  0.00   -0.0204439    0.0061460    0.0521920
 H   -1.6142776    2.8581071   -0.0912266  0.00    0.0016310   -0.0074736   -0.0140148
 H   -2.6920968    1.5282766   -0.1270881  0.00   -0.0026239   -0.0099912   -0.0179689
 C   -2.0980946   -1.0598573    0.0150818  0.00   -0.0137125   -0.0068269    0.0095069
Cl   -3.0366228   -0.5919592   -1.4375665  0.00    0.0045567    0.0161086    0.0040779
Cl   -3.0309253   -0.5986878    1.4662085  0.00    0.0063499    0.0186427   -0.0089085
Cl   -1.9817970   -2.8188976    0.0057418  0.00   -0.0041680   -0.0233968   -0.0006864
19
 Energy =   -1908.2753787912
 C    0.4094933   -1.1246470    0.0013103  0.00    0.0016953    0.0003324   -0.0017387
 C    1.6404692   -0.5005468    0.0047437  0.00   -0.0050371    0.0072782    0.0049309
 C    1.7558886    0.8812102    0.0076634  0.00    0.0073500   -0.0059153   -0.0018087
 C    0.5985915    1.6300752    0.0125639  0.00   -0.0124996   -0.0009690   -0.0019495
 C   -0.6785678    1.0442569    0.0139865  0.00    0.0265650   -0.0259599   -0.0167179
 C   -0.7602401   -0.3704968    0.0072114  0.00    0.0113637    0.0162835    0.0022917
 H    0.3779400   -2.2037091   -0.0087262  0.00   -0.0023560    0.0052396    0.0079925
 H    2.7326984    1.3460514    0.0014306  0.00   -0.0062570    0.0020426    0.0083603
 H    0.6645294    2.7135483    0.0188297  0.00    0.0046090   -0.0026666   -0.0029543
 N    2.8465013   -1.3227910    0.0103032  0.00    0.0063378   -0.0057434   -0.0135933
 O    3.9287607   -0.7384126    0.0161948  0.00   -0.0214767   -0.0203747    0.0011075
 O    2.7072151   -2.5442553    0.0084732  0.00    0.0118016    0.0269660    0.0012688
 N   -1.7635271    1.8680574    0.0539868  0.00   -0.0190599    0.0110476    0.0488723
 H   -1.6164977    2.8549561   -0.0817130  0.00    0.0017180   -0.0032928   -0.0151708
 H   -2.6922064    1.5240279   -0.1182399  0.00   -0.0014264   -0.0069721   -0.0186856
 C   -2.0982928   -1.0588657    0.0139661  0.00   -0.0129235   -0.0044426    0.0031150
Cl   -3.0412448   -0.5870123   -1.4346429  0.00    0.0027335    0.0108629    0.0003450
Cl   -3.0239888   -0.5926511    1.4680365  0.00    0.0056594    0.0073294   -0.0052140
Cl   -1.9875221   -2.8187955    0.0046218  0.00    0.0012029   -0.0110458   -0.0004511
19
 Energy =   -1908.2754202328
 C    0.4118139   -1.1261880    0.0093900  0.00   -0.0050389   -0.0047894   -0.0007683
 C    1.6417400   -0.5001853    0.0104297  0.00   -0.0034533    0.0045140   -0.0045189
 C    1.7557851    0.8815458    0.0172361  0.00    0.0056980   -0.0079284   -0.0000409
 C    0.5976675    1.6287166    0.0174016  0.00   -0.0089082    0.0031508    0.0010408
 C   -0.6773615    1.0399591    0.0163702  0.00    0.0138440   -0.0013782   -0.0154658
 C   -0.7577663   -0.3728621    0.0119010  0.00    0.0037212   -0.0151047    0.0043780
 H    0.3810359   -2.2047888    0.0064494  0.00   -0.0051273   -0.0093293   -0.0033448
 H    2.7313592    1.3480667    0.0207980  0.00    0.0009641    0.0021915   -0.0047788
 H    0.6623192    2.7120619    0.0211819  0.00    0.0024437    0.0010129    0.0029730
 N    2.8484940   -1.3207180   -0.0012279  0.00   -0.0012821    0.0005517    0.0080331
 O    3.9294540   -0.7364814   -0.0011153  0.00    0.0119956    0.0125198   -0.0004669
 O    2.7122012   -2.5412745   -0.0104910  0.00   -0.0073793   -0.0154700   -0.0006009
 N   -1.7665999    1.8589806    0.0583114  0.00   -0.0127954    0.0272690    0.0468869
 H   -1.6210055    2.8428264   -0.0982352  0.00    0.0013142    0.0093034   -0.0157213
 H   -2.6892016    1.5089567   -0.1354360  0.00    0.0039151    0.0029403   -0.0186193
 C   -2.0991587   -1.0554550    0.0162950  0.00   -0.0071351    0.0031473    0.0099966
Cl   -3.0338410   -0.5703749   -1.4333731  0.00   -0.0050747   -0.0174874   -0.0143249
Cl   -3.0229914   -0.5751007    1.4664114  0.00   -0.0011322   -0.0177365    0.0067187
Cl   -2.0039441   -2.8176849    0.0077027  0.00    0.0134309    0.0226230   -0.0013763
19
 Energy =   -1908.2755256637
 C    0.4099770   -1.1257455    0.0110475  0.00   -0.0046089    0.0070754    0.0012055
 C    1.6398841   -0.4995727    0.0092218  0.00    0.0021856   -0.0020273   -0.0023652
 C    1.7552454    0.8817889    0.0163709  0.00   -0.0107845   -0.0015102   -0.0002542
 C    0.5964900    1.6292760    0.0224128  0.00    0.0054543    0.0022481    0.0036751
 C   -0.6785430    1.0415815    0.0226381  0.00    0.0207372   -0.0105787   -0.0151571
 C   -0.7590963   -0.3712286    0.0163468  0.00    0.0038905   -0.0141408   -0.0006382
 H    0.3778356   -2.2044195    0.0089629  0.00    0.0002366   -0.0034503   -0.0052315
 H    2.7305202    1.3487385    0.0148036  0.00    0.0027484    0.0004479   -0.0004786
 H    0.6625985    2.7126147    0.0321306  0.00   -0.0001118   -0.0004938   -0.0022603
 N    2.8462077   -1.3209181   -0.0037447  0.00    0.0135927   -0.0090502    0.0052296
 O    3.9279862   -0.7374258   -0.0050897  0.00   -0.0001198    0.0091568   -0.0006701
 O    2.7095183   -2.5418134   -0.0125377  0.00   -0.0090387   -0.0020789   -0.0002054
 N   -1.7679709    1.8628907    0.0723963  0.00   -0.0115314    0.0220855    0.0435692
 H   -1.6154469    2.8413030   -0.1122519  0.00   -0.0027868    0.0111260   -0.0139384
 H   -2.6837749    1.5130232   -0.1533879  0.00   -0.0018762   -0.0000749   -0.0171061
 C   -2.0995298   -1.0563782    0.0184289  0.00    0.0026592    0.0046844    0.0146060
Cl   -3.0317424   -0.5741699   -1.4337198  0.00   -0.0069940   -0.0106137   -0.0085721
Cl   -3.0248160   -0.5820616    1.4684983  0.00   -0.0033666   -0.0115859    0.0001322
Cl   -1.9953427   -2.8174832    0.0074734  0.00   -0.0002857    0.0087806   -0.0015402
19
 Energy =   -1908.2756004107
 C    0.4063930   -1.1245998    0.0085063  0.00   -0.0051545    0.0269946    0.0008435
 C    1.6362650   -0.4980852    0.0065848  0.00    0.0110119   -0.0129168    0.0024007
 C    1.7538678    0.8825502    0.0183495  0.00   -0.0372321    0.0103585    0.0011467
 C    0.5939413    1.6305268    0.0312073  0.00    0.0296581   -0.0012785    0.0030277
 C   -0.6810621    1.0447204    0.0325064  0.00    0.0453448   -0.0385389   -0.0077317
 C   -0.7619174   -0.3681455    0.0215113  0.00    0.0052211   -0.0107679   -0.0027181
 H    0.3719158   -2.2033583   -0.0002956  0.00    0.0099254    0.0071435   -0.0016439
 H    2.7285771    1.3503724    0.0152540  0.00    0.0055752   -0.0031179    0.0012647
 H    0.6626966    2.7138464    0.0465811  0.00   -0.0050506   -0.0026964   -0.0032992
 N    2.8419566   -1.3208390   -0.0071841  0.00    0.0406631   -0.0255308   -0.0015981
 O    3.9251378   -0.7384792   -0.0068852  0.00   -0.0238176    0.0006656   -0.0002261
 O    2.7044544   -2.5423361   -0.0182157  0.00   -0.0104425    0.0235164    0.0003627
 N   -1.7710034    1.8703447    0.0984595  0.00   -0.0128381    0.0171656    0.0168831
 H   -1.6027218    2.8352999   -0.1410140  0.00   -0.0121121    0.0220866   -0.0035506
 H   -2.6694328    1.5202900   -0.1916881  0.00   -0.0208432   -0.0072144   -0.0095060
 C   -2.1007163   -1.0581672    0.0253083  0.00    0.0190922    0.0078114    0.0175929
Cl   -3.0345830   -0.5822467   -1.4278049  0.00   -0.0106656    0.0031463    0.0004376
Cl   -3.0229795   -0.5945646    1.4785571  0.00   -0.0053371    0.0008913   -0.0116799
Cl   -1.9807891   -2.8171291    0.0102622  0.00   -0.0229986   -0.0177181   -0.0020059
19
 Energy =   -1908.2756276833
 C    0.4082500   -1.1245624    0.0037048  0.00   -0.0104672    0.0125377   -0.0026540
 C    1.6381934   -0.4982675    0.0074950  0.00    0.0048160   -0.0075708    0.0002911
 C    1.7544605    0.8824242    0.0231420  0.00   -0.0180101    0.0070819    0.0011795
 C    0.5949841    1.6300396    0.0304408  0.00    0.0125740    0.0001463   -0.0026121
 C   -0.6798171    1.0434381    0.0288831  0.00    0.0178627   -0.0176004   -0.0044775
 C   -0.7608560   -0.3695873    0.0175867  0.00   -0.0033515   -0.0070360    0.0062436
 H    0.3751591   -2.2030953   -0.0120559  0.00    0.0038113   -0.0015245    0.0041839
 H    2.7293040    1.3502624    0.0280439  0.00    0.0035701   -0.0026749   -0.0043303
 H    0.6628568    2.7133434    0.0402174  0.00   -0.0040751   -0.0011660    0.0050046
 N    2.8445648   -1.3204257   -0.0064547  0.00    0.0209340   -0.0128502   -0.0000947
 O    3.9266969   -0.7370194   -0.0025211  0.00   -0.0109253    0.0010713    0.0002101
 O    2.7068768   -2.5414111   -0.0213043  0.00   -0.0054957    0.0099619   -0.0001727
 N   -1.7716414    1.8689018    0.0952128  0.00   -0.0015295    0.0092650    0.0089848
 H   -1.6057568    2.8357927   -0.1407442  0.00   -0.0082599    0.0070462   -0.0011280
 H   -2.6702080    1.5180855   -0.1958833  0.00   -0.0061411   -0.0026125   -0.0065320
 C   -2.1013082   -1.0580889    0.0280739  0.00    0.0126932    0.0086225    0.0079430
Cl   -3.0423768   -0.5809739   -1.4206487  0.00   -0.0069939    0.0025264   -0.0052087
Cl   -3.0183459   -0.5905823    1.4831715  0.00   -0.0000697    0.0009876   -0.0051386
Cl   -1.9910363   -2.8182738    0.0136404  0.00   -0.0009423   -0.0062113   -0.0016920
19
 Energy =   -1908.2755975463
 C    0.4100933   -1.1244271    0.0169481  0.00   -0.0092493   -0.0098364    0.0065875
 C    1.6401864   -0.4985155    0.0091413  0.00   -0.0042624    0.0020824   -0.0034749
 C    1.7546844    0.8824460    0.0156326  0.00    0.0100664    0.0008376   -0.0077651
 C    0.5960059    1.6296852    0.0337525  0.00   -0.0098469    0.0008530    0.0080721
 C   -0.6782501    1.0419324    0.0343633  0.00   -0.0155418    0.0108256    0.0076484
 C   -0.7595510   -0.3709578    0.0257449  0.00   -0.0129957   -0.0007499   -0.0122020
 H    0.3785958   -2.2029886    0.0197150  0.00   -0.0027765   -0.0092942   -0.0117187
 H    2.7295494    1.3503662   -0.0014484  0.00    0.0013772   -0.0021062    0.0143425
 H    0.6628335    2.7126292    0.0569586  0.00   -0.0029510    0.0020694   -0.0152955
 N    2.8474373   -1.3201123   -0.0096213  0.00   -0.0098911    0.0073829    0.0019910
 O    3.9279636   -0.7352985   -0.0166532  0.00    0.0107492    0.0039145   -0.0007922
 O    2.7093002   -2.5403494   -0.0173972  0.00    0.0004713   -0.0128909    0.0007938
 N   -1.7733097    1.8671055    0.1038689  0.00    0.0123820   -0.0002763   -0.0050903
 H   -1.6096361    2.8336452   -0.1390031  0.00   -0.0029630   -0.0095963    0.0018260
 H   -2.6684704    1.5134120   -0.1978556  0.00    0.0102407    0.0050122    0.0030903
 C   -2.1018248   -1.0571078    0.0235233  0.00    0.0013202    0.0053165    0.0108541
Cl   -3.0319000   -0.5727005   -1.4313932  0.00    0.0039870   -0.0013018   -0.0060278
Cl   -3.0319644   -0.5899478    1.4696349  0.00    0.0005120   -0.0015862    0.0069101
Cl   -2.0017435   -2.8188164    0.0040886  0.00    0.0193716    0.0093442    0.0002506
19
 Energy =   -1908.2756383547
 C    0.4084194   -1.1242847    0.0073460  0.00   -0.0012364   -0.0017167   -0.0002489
 C    1.6387042   -0.4986421    0.0072913  0.00   -0.0006659    0.0004681    0.0016316
 C    1.7542351    0.8822854    0.0200967  0.00   -0.0002397    0.0018615    0.0005079
 C    0.5954084    1.6301475    0.0310280  0.00    0.0006984   -0.0000877   -0.0007119
 C   -0.6790874    1.0431287    0.0312076  0.00   -0.0008831    0.0012895    0.0008268
 C   -0.7604260   -0.3696528    0.0208211  0.00   -0.0056869   -0.0003669   -0.0020990
 H    0.3757801   -2.2029970   -0.0034549  0.00    0.0016691   -0.0006949    0.0000948
 H    2.7294619    1.3496513    0.0192734  0.00    0.0015882   -0.0019230   -0.0004472
 H    0.6626230    2.7133299    0.0435662  0.00   -0.0022467    0.0004529    0.0004044
 N    2.8455133   -1.3208706   -0.0069543  0.00    0.0001640    0.0009000   -0.0007390
 O    3.9268001   -0.7368586   -0.0062958  0.00    0.0027392    0.0023225   -0.0000615
 O    2.7071319   -2.5413410   -0.0188252  0.00   -0.0014764   -0.0037027   -0.0000040
 N   -1.7728518    1.8685103    0.1006010  0.00    0.0051251    0.0004111   -0.0006057
 H   -1.6084139    2.8350562   -0.1398895  0.00   -0.0033571   -0.0007208    0.0008760
 H   -2.6686447    1.5160498   -0.1991724  0.00    0.0016706    0.0008278   -0.0007294
 C   -2.1009010   -1.0571695    0.0273927  0.00    0.0022561    0.0021832    0.0052087
Cl   -3.0394601   -0.5771808   -1.4233380  0.00   -0.0009315   -0.0008822   -0.0018570
Cl   -3.0222151   -0.5911540    1.4797464  0.00    0.0007787   -0.0011934   -0.0016113
Cl   -1.9920774   -2.8180079    0.0095600  0.00    0.0000343    0.0005716   -0.0004351
19
 Energy =   -1908.2756387562
 C    0.4083328   -1.1242799    0.0068481  0.00   -0.0010218   -0.0010430   -0.0003936
 C    1.6386306   -0.4986224    0.0076796  0.00   -0.0004919    0.0002577   -0.0006378
 C    1.7542464    0.8822996    0.0213808  0.00   -0.0005259    0.0017813    0.0000896
 C    0.5954110    1.6301931    0.0319669  0.00    0.0012305   -0.0003333   -0.0000922
 C   -0.6790868    1.0431881    0.0307090  0.00   -0.0007084    0.0010105   -0.0000291
 C   -0.7605480   -0.3696177    0.0199723  0.00   -0.0039430   -0.0000805    0.0013131
 H    0.3758025   -2.2030087   -0.0043285  0.00    0.0014741   -0.0002709    0.0001110
 H    2.7295737    1.3494954    0.0211161  0.00    0.0011618   -0.0017097   -0.0000391
 H    0.6624876    2.7133799    0.0456344  0.00   -0.0018948    0.0002521   -0.0002671
 N    2.8454541   -1.3208742   -0.0077338  0.00    0.0003351    0.0005495    0.0001412
 O    3.9267821   -0.7368385   -0.0068338  0.00    0.0013476    0.0010495    0.0000744
 O    2.7069845   -2.5413744   -0.0207637  0.00   -0.0007118   -0.0019173    0.0000508
 N   -1.7728277    1.8685874    0.0991184  0.00    0.0040776   -0.0000240   -0.0000295
 H   -1.6083511    2.8353777   -0.1402179  0.00   -0.0026213   -0.0004755    0.0005754
 H   -2.6683385    1.5163094   -0.2015931  0.00    0.0009371    0.0003017   -0.0008867
 C   -2.1009012   -1.0571986    0.0279450  0.00    0.0015691    0.0016243    0.0033040
Cl   -3.0402784   -0.5790544   -1.4229337  0.00   -0.0007630    0.0001943   -0.0014077
Cl   -3.0215835   -0.5899420    1.4802179  0.00    0.0006942   -0.0010731   -0.0015238
Cl   -1.9917901   -2.8180198    0.0118159  0.00   -0.0001452   -0.0000935   -0.0003532
19
 Energy =   -1908.2756393199
 C    0.4082501   -1.1242824    0.0069981  0.00   -0.0007728   -0.0001267    0.0000612
 C    1.6385621   -0.4985682    0.0077001  0.00   -0.0001959   -0.0000835   -0.0001058
 C    1.7543443    0.8823648    0.0211701  0.00   -0.0004726    0.0012951   -0.0002251
 C    0.5955134    1.6303109    0.0316991  0.00    0.0016097   -0.0008118   -0.0004622
 C   -0.6789496    1.0432504    0.0308076  0.00   -0.0009285    0.0009608   -0.0002240
 C   -0.7607150   -0.3695949    0.0202939  0.00   -0.0000431    0.0004676    0.0002930
 H    0.3760567   -2.2030483   -0.0040537  0.00    0.0006931    0.0002415    0.0001015
 H    2.7299205    1.3491254    0.0205034  0.00    0.0001542   -0.0010605    0.0000811
 H    0.6621806    2.7135456    0.0445207  0.00   -0.0008832   -0.0001097    0.0002646
 N    2.8454541   -1.3208933   -0.0074655  0.00   -0.0001249    0.0002120    0.0000919
 O    3.9268331   -0.7367949   -0.0067216  0.00   -0.0008744   -0.0012878    0.0000049
 O    2.7068082   -2.5414628   -0.0201036  0.00    0.0008934    0.0011195   -0.0000466
 N   -1.7726296    1.8686003    0.0991071  0.00    0.0014900   -0.0010269    0.0008135
 H   -1.6087746    2.8357606   -0.1389113  0.00   -0.0007301    0.0000478    0.0000801
 H   -2.6679596    1.5163460   -0.2020318  0.00   -0.0001448   -0.0001361   -0.0007105
 C   -2.1009271   -1.0571243    0.0280796  0.00    0.0000285    0.0000975    0.0012711
Cl   -3.0404316   -0.5786509   -1.4228405  0.00   -0.0002620    0.0005508   -0.0005986
Cl   -3.0217930   -0.5909417    1.4803295  0.00    0.0003460    0.0003473   -0.0005485
Cl   -1.9917430   -2.8179424    0.0109188  0.00    0.0002176   -0.0006970   -0.0001417
19
 Energy =   -1908.2756385366
 C    0.4082066   -1.1242638    0.0070505  0.00   -0.0002853   -0.0001693    0.0000144
 C    1.6385008   -0.4985240    0.0076061  0.00    0.0001066   -0.0000546   -0.0000194
 C    1.7543578    0.8824045    0.0210918  0.00   -0.0001267    0.0006480    0.0002037
 C    0.5955486    1.6303608    0.0317494  0.00    0.0008870   -0.0007155   -0.0000427
 C   -0.6788863    1.0432537    0.0308928  0.00   -0.0005429    0.0008909   -0.0000165
 C   -0.7607479   -0.3695681    0.0204418  0.00    0.0010268    0.0003523   -0.0000409
 H    0.3762092   -2.2030339   -0.0038956  0.00    0.0002164    0.0001705   -0.0000073
 H    2.7300613    1.3488889    0.0205588  0.00   -0.0000240   -0.0004362   -0.0001246
 H    0.6619640    2.7135983    0.0448638  0.00   -0.0002762   -0.0000096   -0.0000560
 N    2.8454192   -1.3208720   -0.0076173  0.00   -0.0007775    0.0004006    0.0000279
 O    3.9267872   -0.7368159   -0.0068955  0.00   -0.0001552   -0.0006215    0.0000283
 O    2.7067769   -2.5414188   -0.0202847  0.00    0.0005818    0.0003691   -0.0000010
 N   -1.7727030    1.8684253    0.0994053  0.00    0.0001260   -0.0007493   -0.0000224
 H   -1.6090719    2.8356228   -0.1386156  0.00    0.0001984    0.0003712    0.0000446
 H   -2.6674969    1.5160413   -0.2032649  0.00   -0.0004423   -0.0000754   -0.0000379
 C   -2.1009289   -1.0570025    0.0283122  0.00   -0.0007123   -0.0005452   -0.0000041
Cl   -3.0403839   -0.5785298   -1.4228282  0.00    0.0000954    0.0001406    0.0000062
Cl   -3.0218351   -0.5906833    1.4803445  0.00    0.0000558    0.0000511    0.0000221
Cl   -1.9917778   -2.8178834    0.0110847  0.00    0.0000480   -0.0000176    0.0000256
19
 Energy =   -1908.2756390998
 C    0.4082105   -1.1242573    0.0070545  0.00   -0.0002467   -0.0001725    0.0000800
 C    1.6384951   -0.4985209    0.0076309  0.00    0.0001648   -0.0000432   -0.0000878
 C    1.7543765    0.8824038    0.0210045  0.00   -0.0000630    0.0003792   -0.0000055
 C    0.5955807    1.6303584    0.0315906  0.00    0.0002913   -0.0004107   -0.0000858
 C   -0.6788794    1.0432720    0.0308061  0.00   -0.0001659    0.0005676    0.0000583
 C   -0.7607292   -0.3695552    0.0203706  0.00    0.0006997    0.0002245   -0.0000036
 H    0.3762542   -2.2030232   -0.0038141  0.00    0.0001033    0.0000783   -0.0000263
 H    2.7301089    1.3488068    0.0203245  0.00    0.0000420   -0.0001997    0.0000177
 H    0.6619468    2.7135981    0.0445590  0.00   -0.0001211    0.0000486    0.0000175
 N    2.8453943   -1.3208735   -0.0074746  0.00   -0.0005567    0.0002402    0.0000501
 O    3.9267731   -0.7368630   -0.0066735  0.00    0.0001840   -0.0000806   -0.0000100
 O    2.7067857   -2.5414132   -0.0201211  0.00    0.0001756   -0.0000693   -0.0000324
 N   -1.7726962    1.8683815    0.0993781  0.00   -0.0002557   -0.0003800    0.0001239
 H   -1.6091855    2.8357038   -0.1382324  0.00    0.0002354    0.0001303   -0.0000033
 H   -2.6675964    1.5160226   -0.2030303  0.00   -0.0000663    0.0000191   -0.0001070
 C   -2.1009185   -1.0570010    0.0282455  0.00   -0.0005061   -0.0004244   -0.0000515
Cl   -3.0404171   -0.5783632   -1.4228288  0.00    0.0001117   -0.0000609    0.0000862
Cl   -3.0217628   -0.5907919    1.4803525  0.00    0.0000380    0.0000212   -0.0000155
Cl   -1.9917406   -2.8178848    0.0108577  0.00   -0.0000644    0.0001325   -0.0000049
