19
 Energy =    -828.1488468758
 C   -0.5091974   -1.0810016   -0.0027001  0.00   -0.0803732   -0.1586819   -0.0020663
 C   -1.6648769   -0.3299801   -0.0095463  0.00    0.0559514    0.0671416    0.0007870
 C   -1.6158262    1.0549820   -0.0177279  0.00   -0.2221463   -0.0453663   -0.0036522
 C   -0.3983799    1.6849224   -0.0163613  0.00    0.1716322   -0.0041322   -0.0005797
 C    0.8001231    0.9555894   -0.0072228  0.00   -0.0371007   -0.0643046    0.0218160
 C    0.7182354   -0.4512436   -0.0027657  0.00    0.1040397    0.1163171   -0.0016060
 H   -0.5765856   -2.1576144    0.0021935  0.00    0.0009715   -0.0494083   -0.0000401
 H   -2.5368742    1.6180424   -0.0230697  0.00   -0.0369060    0.0285739    0.0001666
 H   -0.3515054    2.7660653   -0.0223729  0.00    0.0011083    0.0438190    0.0008532
 N   -2.9553537   -1.0048194   -0.0079807  0.00    0.2501686    0.1326890    0.0000016
 O   -3.9535782   -0.3120898   -0.0154034  0.00   -0.3834328    0.3530689   -0.0035838
 O   -2.9613035   -2.2192041    0.0007387  0.00    0.0709828   -0.5201340    0.0039911
 N    1.9859702    1.6157442   -0.0270275  0.00    0.1048377    0.0379441   -0.0592152
 H    1.9914283    2.6132356    0.0802197  0.00   -0.0008513    0.0585979    0.0179646
 H    2.8532152    1.1381036    0.1349359  0.00    0.0475476   -0.0225583    0.0210612
 C    1.9677145   -1.2750396   -0.0151432  0.00    0.0539661   -0.0172813    0.0026086
 F    2.6959490   -1.0704747   -1.1304608  0.00   -0.0405082    0.0226012    0.0004693
 F    2.7856309   -0.9628753    1.0171365  0.00   -0.0425349    0.0136372   -0.0004091
 F    1.7252144   -2.5823420    0.0625580  0.00   -0.0173525    0.0074770    0.0014332
19
 Energy =    -828.1497057922
 C   -0.5118200   -1.0876567   -0.0068772  0.00   -0.0325597   -0.0612405    0.0016234
 C   -1.6679972   -0.3324237   -0.0102054  0.00    0.0258240    0.0371430   -0.0024188
 C   -1.6209675    1.0544370   -0.0094925  0.00   -0.0810206   -0.0208227    0.0027619
 C   -0.3947296    1.6832582   -0.0059275  0.00    0.0699800   -0.0076343    0.0101529
 C    0.8058335    0.9554581   -0.0071472  0.00   -0.0360163   -0.0242559   -0.0083417
 C    0.7176526   -0.4502956   -0.0010931  0.00    0.0123235    0.0536873    0.0063706
 H   -0.5778591   -2.1666762   -0.0097703  0.00    0.0059853   -0.0016781    0.0061684
 H   -2.5429633    1.6201560   -0.0090045  0.00    0.0020893    0.0082883    0.0016537
 H   -0.3468229    2.7664415   -0.0000498  0.00   -0.0068874    0.0113729   -0.0089791
 N   -2.9614967   -1.0088834   -0.0133154  0.00    0.0707766    0.0386735   -0.0018993
 O   -3.9660213   -0.3051122   -0.0173890  0.00   -0.0675078    0.0388325   -0.0000417
 O   -2.9614712   -2.2348306   -0.0115688  0.00   -0.0061410   -0.0793399    0.0001854
 N    1.9974364    1.6155923   -0.0532974  0.00    0.0370036    0.0165595   -0.0337216
 H    2.0050704    2.6148869    0.0592811  0.00   -0.0049613    0.0073429    0.0183300
 H    2.8667906    1.1365379    0.1067742  0.00    0.0030067   -0.0019725    0.0171032
 C    1.9663327   -1.2705295   -0.0039377  0.00    0.0206986   -0.0109772    0.0013297
 F    2.7017148   -1.0532010   -1.1113302  0.00   -0.0050410   -0.0022267    0.0015462
 F    2.7670700   -0.9588202    1.0408055  0.00   -0.0169248   -0.0040582   -0.0101554
 F    1.7242478   -2.5783389    0.0635452  0.00    0.0093723    0.0023060   -0.0016680
19
 Energy =    -828.1495255364
 C   -0.5121990   -1.0905758    0.0217657  0.00   -0.0058016   -0.0004500    0.0016388
 C   -1.6673735   -0.3318523   -0.0023692  0.00    0.0060105    0.0097133    0.0193228
 C   -1.6221605    1.0549221   -0.0345163  0.00   -0.0037381   -0.0084680   -0.0115415
 C   -0.3914009    1.6819351   -0.0450835  0.00    0.0095242   -0.0019317   -0.0279511
 C    0.8086010    0.9547086   -0.0101026  0.00   -0.0265459   -0.0063366    0.0745261
 C    0.7184652   -0.4503635    0.0040538  0.00   -0.0140781    0.0064940   -0.0434728
 H   -0.5779901   -2.1692138    0.0656084  0.00    0.0055550    0.0085469   -0.0378218
 H   -2.5435995    1.6224818   -0.0444990  0.00    0.0119438   -0.0003801   -0.0213464
 H   -0.3427361    2.7648002   -0.0979274  0.00   -0.0064844   -0.0022232    0.0390973
 N   -2.9618610   -1.0081727    0.0013473  0.00   -0.0120725   -0.0057199    0.0249407
 O   -3.9692149   -0.3017650   -0.0240334  0.00    0.0430894   -0.0536561   -0.0011899
 O   -2.9618100   -2.2379277    0.0297851  0.00   -0.0193057    0.0654670   -0.0037393
 N    2.0030743    1.6166543   -0.0011353  0.00    0.0151064    0.0124368   -0.0851533
 H    2.0000295    2.6137527    0.1361444  0.00   -0.0065462   -0.0085041    0.0081071
 H    2.8605302    1.1374647    0.2166300  0.00   -0.0123267   -0.0019604    0.0109176
 C    1.9668796   -1.2703288   -0.0437678  0.00    0.0084477   -0.0006679    0.0142284
 F    2.6692352   -1.0386781   -1.1691884  0.00   -0.0207950   -0.0035874    0.0202774
 F    2.7943615   -0.9686900    0.9817121  0.00    0.0235521   -0.0076277    0.0185369
 F    1.7291691   -2.5791517    0.0155762  0.00    0.0044651   -0.0011447    0.0006231
19
 Energy =    -828.1498010875
 C   -0.5124826   -1.0903588   -0.0090392  0.00   -0.0064812   -0.0083121    0.0002135
 C   -1.6676263   -0.3316876   -0.0123776  0.00    0.0085379    0.0111840    0.0071627
 C   -1.6226107    1.0551318   -0.0274893  0.00   -0.0142444   -0.0090470   -0.0064742
 C   -0.3927386    1.6825022   -0.0266529  0.00    0.0175382   -0.0014795   -0.0122287
 C    0.8071886    0.9547707   -0.0149362  0.00   -0.0264643   -0.0135638    0.0397124
 C    0.7179170   -0.4504468   -0.0088251  0.00   -0.0060676    0.0115261   -0.0091161
 H   -0.5781616   -2.1696085   -0.0074224  0.00    0.0042307    0.0048132    0.0081059
 H   -2.5438943    1.6223642   -0.0406323  0.00    0.0071194    0.0019724    0.0104470
 H   -0.3446772    2.7664140   -0.0388996  0.00   -0.0055954   -0.0010576    0.0023243
 N   -2.9616498   -1.0077636    0.0068548  0.00    0.0011125    0.0005215   -0.0170787
 O   -3.9686159   -0.3024221    0.0042153  0.00    0.0133703   -0.0213912    0.0017955
 O   -2.9621806   -2.2365345    0.0242991  0.00   -0.0098569    0.0225334    0.0013654
 N    2.0010610    1.6165860   -0.0362878  0.00    0.0188251    0.0119459   -0.0550380
 H    2.0011276    2.6130695    0.1036730  0.00   -0.0037504   -0.0012382    0.0143022
 H    2.8632407    1.1372222    0.1603527  0.00   -0.0034018   -0.0016411    0.0150137
 C    1.9675733   -1.2706211   -0.0186773  0.00    0.0086002   -0.0030905   -0.0088550
 F    2.6998996   -1.0450482   -1.1259150  0.00   -0.0040198   -0.0014161    0.0045685
 F    2.7680570   -0.9643558    1.0269708  0.00   -0.0000239   -0.0016972    0.0038558
 F    1.7285728   -2.5792137    0.0407891  0.00    0.0005715   -0.0005621   -0.0000762
19
 Energy =    -828.1498240273
 C   -0.5124567   -1.0900388   -0.0026462  0.00   -0.0085415   -0.0130106    0.0016921
 C   -1.6676066   -0.3316447   -0.0070708  0.00    0.0096749    0.0125925   -0.0062540
 C   -1.6225655    1.0551460   -0.0120547  0.00   -0.0203166   -0.0094207    0.0008516
 C   -0.3930869    1.6826107   -0.0143098  0.00    0.0218830   -0.0017522    0.0037148
 C    0.8067805    0.9548131   -0.0138512  0.00   -0.0271802   -0.0158491    0.0107416
 C    0.7177903   -0.4503990   -0.0044673  0.00   -0.0024092    0.0148874    0.0043815
 H   -0.5780703   -2.1691673    0.0037238  0.00    0.0038215    0.0027292   -0.0013870
 H   -2.5438063    1.6223826   -0.0107239  0.00    0.0051187    0.0027267   -0.0022374
 H   -0.3452280    2.7664888   -0.0170724  0.00   -0.0052433    0.0006212   -0.0028077
 N   -2.9615033   -1.0079297   -0.0101342  0.00    0.0083978    0.0045349    0.0064821
 O   -3.9682277   -0.3031689   -0.0172754  0.00    0.0001988   -0.0081563   -0.0003880
 O   -2.9622487   -2.2363011   -0.0052090  0.00   -0.0065228    0.0041649   -0.0005253
 N    2.0000081    1.6164369   -0.0579435  0.00    0.0202987    0.0113882   -0.0430699
 H    2.0019717    2.6132617    0.0790226  0.00   -0.0025527    0.0015749    0.0166425
 H    2.8648382    1.1379745    0.1287183  0.00   -0.0000914   -0.0017687    0.0164547
 C    1.9674162   -1.2707835   -0.0101874  0.00    0.0091592   -0.0038386   -0.0046761
 F    2.7013610   -1.0487296   -1.1170256  0.00   -0.0018460   -0.0009432    0.0016332
 F    2.7667054   -0.9618076    1.0357240  0.00   -0.0044573   -0.0001261   -0.0010195
 F    1.7279286   -2.5791441    0.0527827  0.00    0.0006084   -0.0003544   -0.0002292
19
 Energy =    -828.1498764880
 C   -0.5121769   -1.0902363   -0.0021905  0.00   -0.0049744   -0.0059013    0.0017468
 C   -1.6669380   -0.3312508   -0.0096468  0.00    0.0053389    0.0071145    0.0035905
 C   -1.6223328    1.0552969   -0.0194215  0.00   -0.0101574   -0.0059552    0.0031844
 C   -0.3923786    1.6824919   -0.0197394  0.00    0.0129374   -0.0007523    0.0014474
 C    0.8070476    0.9546634   -0.0140280  0.00   -0.0261007   -0.0151930    0.0070692
 C    0.7179856   -0.4502480   -0.0039734  0.00   -0.0012824    0.0082749   -0.0056338
 H   -0.5774146   -2.1692378    0.0065603  0.00    0.0020566    0.0011685   -0.0015588
 H   -2.5430706    1.6230644   -0.0222594  0.00    0.0023344    0.0021418   -0.0009872
 H   -0.3449791    2.7663880   -0.0266231  0.00   -0.0033629    0.0004138   -0.0019490
 N   -2.9607945   -1.0074620   -0.0042952  0.00    0.0002493    0.0001046   -0.0009227
 O   -3.9677832   -0.3031356   -0.0116299  0.00    0.0012927   -0.0032168   -0.0001484
 O   -2.9620352   -2.2357750    0.0073493  0.00   -0.0018513    0.0027655   -0.0000560
 N    2.0010378    1.6167476   -0.0599816  0.00    0.0188657    0.0116439   -0.0405618
 H    1.9989978    2.6112780    0.0941810  0.00   -0.0002691    0.0034084    0.0156860
 H    2.8617635    1.1386533    0.1467347  0.00    0.0010765   -0.0025434    0.0168517
 C    1.9676218   -1.2709683   -0.0147142  0.00    0.0061970   -0.0009364   -0.0034640
 F    2.6998805   -1.0447141   -1.1216142  0.00   -0.0037118   -0.0023633    0.0049716
 F    2.7677760   -0.9660493    1.0316718  0.00   -0.0000273    0.0002090    0.0005945
 F    1.7277931   -2.5795064    0.0436203  0.00    0.0013890   -0.0003832    0.0001396
19
 Energy =    -828.1498007419
 C   -0.5089631   -1.0907251   -0.0105052  0.00    0.0212081    0.0391101   -0.0072374
 C   -1.6610569   -0.3273418   -0.0166889  0.00   -0.0195661   -0.0267223    0.0322284
 C   -1.6192938    1.0574867   -0.0436364  0.00    0.0550267    0.0176163    0.0140681
 C   -0.3857498    1.6824462   -0.0555869  0.00   -0.0447222   -0.0009437   -0.0205612
 C    0.8104215    0.9543191   -0.0345988  0.00   -0.0838411   -0.0515115   -0.0260192
 C    0.7208340   -0.4484245   -0.0189351  0.00    0.0002566   -0.0312096   -0.0211603
 H   -0.5716238   -2.1690299   -0.0023597  0.00   -0.0105335   -0.0089604    0.0112255
 H   -2.5363781    1.6294360   -0.0445923  0.00   -0.0159230   -0.0035792   -0.0091308
 H   -0.3415192    2.7658797   -0.0965502  0.00    0.0111830   -0.0006397    0.0195497
 N   -2.9545145   -1.0025218    0.0268947  0.00   -0.0602871   -0.0326094   -0.0220663
 O   -3.9630272   -0.3003808    0.0270086  0.00    0.0151618    0.0237528    0.0007791
 O   -2.9587423   -2.2305058    0.0610413  0.00    0.0280620    0.0018723    0.0002407
 N    2.0104644    1.6196855   -0.1022086  0.00    0.0264837    0.0326380    0.0424813
 H    1.9670258    2.5824594    0.1943382  0.00    0.0294208    0.0506288   -0.0147819
 H    2.8230202    1.1403537    0.2529357  0.00    0.0435062   -0.0162961   -0.0069384
 C    1.9710061   -1.2713955   -0.0338665  0.00   -0.0088616    0.0171117   -0.0227763
 F    2.7040703   -1.0376012   -1.1366857  0.00   -0.0057165   -0.0090910    0.0179982
 F    2.7652429   -0.9740801    1.0190593  0.00    0.0158160   -0.0006205    0.0081318
 F    1.7287834   -2.5800599    0.0149363  0.00    0.0033262   -0.0005465    0.0039690
19
 Energy =    -828.1499922044
 C   -0.5115164   -1.0906773    0.0000440  0.00    0.0069138    0.0130477    0.0013447
 C   -1.6653896   -0.3300474   -0.0081009  0.00   -0.0045759   -0.0073063   -0.0017154
 C   -1.6219136    1.0558177   -0.0285703  0.00    0.0167290    0.0041741   -0.0054274
 C   -0.3904042    1.6822081   -0.0316578  0.00   -0.0103069    0.0023547    0.0009342
 C    0.8077868    0.9543711   -0.0245240  0.00   -0.0087800   -0.0045423    0.0173910
 C    0.7185991   -0.4496890   -0.0121829  0.00    0.0019756   -0.0091072   -0.0047453
 H   -0.5756695   -2.1693618    0.0183152  0.00   -0.0023528   -0.0016968   -0.0054251
 H   -2.5412767    1.6251602   -0.0431507  0.00   -0.0030780   -0.0007872    0.0115383
 H   -0.3443743    2.7662629   -0.0401842  0.00    0.0019176   -0.0013636   -0.0081219
 N   -2.9594049   -1.0061856    0.0055412  0.00   -0.0205427   -0.0109980   -0.0023044
 O   -3.9669584   -0.3024500   -0.0033638  0.00    0.0100732    0.0009633   -0.0001542
 O   -2.9614656   -2.2345673    0.0252505  0.00    0.0065160    0.0083678    0.0007194
 N    2.0056869    1.6187900   -0.0773042  0.00    0.0032298    0.0063178   -0.0245322
 H    1.9905392    2.6035080    0.1366534  0.00    0.0039121   -0.0002436    0.0052923
 H    2.8507384    1.1395670    0.1894497  0.00   -0.0025889   -0.0008165    0.0094741
 C    1.9687273   -1.2712538   -0.0258707  0.00   -0.0015553    0.0053954   -0.0098886
 F    2.6967932   -1.0474524   -1.1348866  0.00   -0.0044930   -0.0018281    0.0077135
 F    2.7707716   -0.9643395    1.0185095  0.00    0.0074270   -0.0006675    0.0057092
 F    1.7287305   -2.5796610    0.0360328  0.00   -0.0004206   -0.0012636    0.0021978
19
 Energy =    -828.1500008208
 C   -0.5115609   -1.0905404   -0.0049660  0.00    0.0047879    0.0083467   -0.0017388
 C   -1.6655898   -0.3301802   -0.0091856  0.00   -0.0027234   -0.0048113    0.0020656
 C   -1.6219237    1.0557887   -0.0245957  0.00    0.0110444    0.0032169    0.0004782
 C   -0.3906487    1.6822501   -0.0322873  0.00   -0.0063239    0.0019129   -0.0030494
 C    0.8075810    0.9544149   -0.0252008  0.00   -0.0030486   -0.0015289    0.0106253
 C    0.7185632   -0.4497104   -0.0132142  0.00    0.0028947   -0.0054399   -0.0009760
 H   -0.5758240   -2.1693626    0.0049840  0.00   -0.0018963   -0.0012951    0.0015140
 H   -2.5414395    1.6251423   -0.0271998  0.00   -0.0023718   -0.0008444   -0.0004443
 H   -0.3445526    2.7661830   -0.0478868  0.00    0.0016742   -0.0006904    0.0024666
 N   -2.9596540   -1.0063991    0.0049841  0.00   -0.0136533   -0.0072103   -0.0019148
 O   -3.9669596   -0.3025166   -0.0000510  0.00    0.0056926    0.0018405   -0.0000392
 O   -2.9614379   -2.2346823    0.0212741  0.00    0.0047442    0.0039755   -0.0000004
 N    2.0056724    1.6188851   -0.0796339  0.00    0.0007052    0.0040207   -0.0233765
 H    1.9914546    2.6041148    0.1324371  0.00    0.0025059   -0.0030652    0.0062993
 H    2.8511639    1.1396903    0.1860973  0.00   -0.0042401    0.0002504    0.0086098
 C    1.9687299   -1.2712528   -0.0220242  0.00   -0.0007356    0.0039535   -0.0106015
 F    2.7003409   -1.0489516   -1.1288969  0.00   -0.0023009   -0.0016657    0.0051639
 F    2.7676970   -0.9633005    1.0245495  0.00    0.0037805    0.0003335    0.0033783
 F    1.7283880   -2.5795726    0.0408163  0.00   -0.0005355   -0.0012993    0.0015400
19
 Energy =    -828.1500142051
 C   -0.5112963   -1.0903367   -0.0044111  0.00    0.0043854    0.0062634   -0.0015789
 C   -1.6653287   -0.3299984   -0.0092887  0.00   -0.0021625   -0.0042910    0.0026726
 C   -1.6216418    1.0559139   -0.0252430  0.00    0.0091802    0.0038160    0.0011374
 C   -0.3903426    1.6823590   -0.0333341  0.00   -0.0062762    0.0009414   -0.0010081
 C    0.8076587    0.9544595   -0.0262828  0.00   -0.0027853   -0.0016863    0.0046849
 C    0.7188215   -0.4495543   -0.0134480  0.00    0.0032092   -0.0042034   -0.0017305
 H   -0.5754885   -2.1691464    0.0067957  0.00   -0.0022574   -0.0013893    0.0007215
 H   -2.5410589    1.6254282   -0.0276434  0.00   -0.0027120   -0.0012984   -0.0007085
 H   -0.3443878    2.7662756   -0.0487337  0.00    0.0022928   -0.0003592    0.0012889
 N   -2.9595071   -1.0062829    0.0052144  0.00   -0.0103748   -0.0054082   -0.0016003
 O   -3.9666431   -0.3023621   -0.0003606  0.00    0.0029579    0.0031347   -0.0000127
 O   -2.9611459   -2.2344404    0.0222942  0.00    0.0042760    0.0009547   -0.0000749
 N    2.0064682    1.6191890   -0.0855312  0.00   -0.0002500    0.0034275   -0.0141078
 H    1.9898487    2.6021395    0.1378501  0.00    0.0031606   -0.0011969    0.0036455
 H    2.8482122    1.1398914    0.1926039  0.00   -0.0022803   -0.0000922    0.0062894
 C    1.9690104   -1.2712544   -0.0232235  0.00   -0.0007185    0.0036091   -0.0087669
 F    2.6990553   -1.0505067   -1.1311088  0.00   -0.0025323   -0.0014552    0.0045285
 F    2.7693550   -0.9623011    1.0221695  0.00    0.0034446    0.0005548    0.0031202
 F    1.7284108   -2.5794727    0.0416810  0.00   -0.0005574   -0.0013214    0.0014998
19
 Energy =    -828.1500168909
 C   -0.5104256   -1.0897234   -0.0045190  0.00    0.0025759   -0.0003499   -0.0009746
 C   -1.6645408   -0.3294698   -0.0084836  0.00   -0.0004057   -0.0010999   -0.0000846
 C   -1.6208137    1.0564021   -0.0255731  0.00    0.0023373    0.0034643   -0.0013752
 C   -0.3894267    1.6827928   -0.0366543  0.00   -0.0047519   -0.0021594    0.0007004
 C    0.8080015    0.9546843   -0.0309038  0.00   -0.0054652   -0.0031191   -0.0041597
 C    0.7197482   -0.4490695   -0.0164529  0.00    0.0007414    0.0003843    0.0013228
 H   -0.5747714   -2.1685804    0.0083923  0.00   -0.0021418   -0.0002705    0.0002238
 H   -2.5402834    1.6259895   -0.0279248  0.00   -0.0018222   -0.0022371    0.0005016
 H   -0.3434032    2.7666552   -0.0530975  0.00    0.0028013    0.0000894    0.0002900
 N   -2.9591699   -1.0060246    0.0063030  0.00   -0.0007956   -0.0000203    0.0002283
 O   -3.9658327   -0.3016983    0.0012215  0.00   -0.0006569    0.0010363   -0.0000194
 O   -2.9601476   -2.2340246    0.0230166  0.00    0.0005378   -0.0011975   -0.0000019
 N    2.0089715    1.6200687   -0.0997320  0.00   -0.0012558    0.0018251    0.0130413
 H    1.9853631    2.5962896    0.1537400  0.00    0.0039247    0.0053203   -0.0056185
 H    2.8387236    1.1401771    0.2138399  0.00    0.0047198   -0.0013873   -0.0032377
 C    1.9699032   -1.2711568   -0.0268591  0.00   -0.0003380    0.0012438   -0.0048119
 F    2.6944084   -1.0591237   -1.1389808  0.00   -0.0011239   -0.0005673    0.0015399
 F    2.7751172   -0.9553669    1.0133754  0.00    0.0010698   -0.0004194    0.0014325
 F    1.7285783   -2.5788214    0.0492922  0.00    0.0000490   -0.0005359    0.0010027
19
 Energy =    -828.1500284605
 C   -0.5107082   -1.0897563   -0.0039858  0.00    0.0005919   -0.0025312   -0.0005672
 C   -1.6649990   -0.3298081   -0.0085862  0.00    0.0006014    0.0009135   -0.0001423
 C   -1.6211864    1.0561884   -0.0246048  0.00   -0.0014933    0.0011578   -0.0003789
 C   -0.3900670    1.6827445   -0.0339964  0.00   -0.0002699   -0.0011728    0.0014726
 C    0.8076650    0.9547216   -0.0281685  0.00    0.0012284    0.0010764   -0.0013238
 C    0.7194860   -0.4492238   -0.0143040  0.00    0.0006052    0.0022636    0.0001370
 H   -0.5753908   -2.1686526    0.0082461  0.00   -0.0008112    0.0003088   -0.0000998
 H   -2.5410484    1.6252384   -0.0267849  0.00   -0.0003990   -0.0011848   -0.0000519
 H   -0.3436091    2.7666084   -0.0486286  0.00    0.0011643    0.0001641   -0.0003306
 N   -2.9595952   -1.0064225    0.0042619  0.00    0.0027804    0.0016867    0.0002715
 O   -3.9662202   -0.3020397   -0.0014814  0.00   -0.0015768   -0.0001629    0.0000495
 O   -2.9604087   -2.2344342    0.0200862  0.00   -0.0009824   -0.0013477    0.0000920
 N    2.0080525    1.6197808   -0.0941309  0.00   -0.0016431   -0.0006084    0.0022024
 H    1.9884681    2.5996043    0.1445177  0.00    0.0005810   -0.0000161   -0.0013481
 H    2.8425640    1.1403128    0.2065239  0.00   -0.0001651    0.0000362    0.0000786
 C    1.9695248   -1.2712167   -0.0255105  0.00    0.0006722   -0.0001015   -0.0015993
 F    2.6933737   -1.0591689   -1.1382121  0.00   -0.0009151   -0.0001496    0.0006705
 F    2.7757744   -0.9555825    1.0139967  0.00    0.0000868    0.0000532    0.0004657
 F    1.7283242   -2.5788941    0.0507616  0.00   -0.0000554   -0.0003855    0.0004019
19
 Energy =    -828.1500279573
 C   -0.5106811   -1.0897824   -0.0042921  0.00    0.0000981   -0.0014891    0.0000534
 C   -1.6649696   -0.3298049   -0.0088361  0.00    0.0002434    0.0007429   -0.0000689
 C   -1.6212803    1.0562187   -0.0246743  0.00   -0.0010147    0.0002063   -0.0003597
 C   -0.3901551    1.6827712   -0.0335148  0.00    0.0001402   -0.0005748    0.0005066
 C    0.8076230    0.9547650   -0.0276489  0.00    0.0011669    0.0013042    0.0000560
 C    0.7195155   -0.4492050   -0.0141256  0.00   -0.0001831    0.0013333    0.0002589
 H   -0.5755986   -2.1686690    0.0077926  0.00   -0.0001896    0.0003364   -0.0001811
 H   -2.5413452    1.6249439   -0.0269955  0.00    0.0000966   -0.0004748    0.0001061
 H   -0.3433772    2.7666357   -0.0479298  0.00    0.0003001    0.0000375   -0.0001110
 N   -2.9595553   -1.0064486    0.0040386  0.00    0.0019992    0.0011151    0.0002027
 O   -3.9662522   -0.3021053   -0.0016160  0.00   -0.0006053   -0.0006775   -0.0000655
 O   -2.9603674   -2.2344986    0.0198763  0.00   -0.0008876   -0.0002028   -0.0000392
 N    2.0079323    1.6196688   -0.0925128  0.00   -0.0003336   -0.0009032   -0.0000816
 H    1.9889676    2.6002758    0.1426849  0.00   -0.0004626   -0.0003596   -0.0003662
 H    2.8427617    1.1404315    0.2074667  0.00   -0.0004580    0.0001267    0.0003006
 C    1.9694881   -1.2712591   -0.0256393  0.00    0.0004360   -0.0004252   -0.0003616
 F    2.6922994   -1.0603473   -1.1391552  0.00   -0.0001915   -0.0000257    0.0000299
 F    2.7767259   -0.9547233    1.0128941  0.00   -0.0001765   -0.0000512    0.0000314
 F    1.7282686   -2.5788672    0.0521873  0.00    0.0000221   -0.0000184    0.0000889
19
 Energy =    -828.1500267364
 C   -0.5106043   -1.0897866   -0.0040446  0.00    0.0000353   -0.0002929   -0.0002574
 C   -1.6648528   -0.3297366   -0.0086973  0.00   -0.0001762    0.0001655   -0.0002539
 C   -1.6212727    1.0562720   -0.0247271  0.00   -0.0001359   -0.0000866   -0.0000996
 C   -0.3901127    1.6827938   -0.0334497  0.00    0.0000414   -0.0001587    0.0002965
 C    0.8076583    0.9547993   -0.0274506  0.00   -0.0001023    0.0004851    0.0001626
 C    0.7195815   -0.4491587   -0.0137685  0.00   -0.0003197    0.0002320   -0.0003141
 H   -0.5756503   -2.1686532    0.0076962  0.00    0.0000542    0.0001078    0.0002057
 H   -2.5414232    1.6248277   -0.0271507  0.00    0.0000961   -0.0000170    0.0000685
 H   -0.3431731    2.7666556   -0.0479620  0.00   -0.0000848    0.0000141   -0.0000603
 N   -2.9594195   -1.0063926    0.0039574  0.00    0.0006367    0.0003121    0.0000398
 O   -3.9661837   -0.3021299   -0.0020075  0.00   -0.0000948   -0.0002444    0.0000521
 O   -2.9602892   -2.2344554    0.0198802  0.00   -0.0002598    0.0000628    0.0000457
 N    2.0079998    1.6196058   -0.0924901  0.00    0.0005975   -0.0005552    0.0004242
 H    1.9887625    2.6003413    0.1421331  0.00   -0.0005036    0.0001512   -0.0003042
 H    2.8422923    1.1406774    0.2094855  0.00    0.0000905   -0.0000583   -0.0001042
 C    1.9695046   -1.2713294   -0.0259340  0.00    0.0001466   -0.0002564    0.0003684
 F    2.6913092   -1.0611350   -1.1401627  0.00    0.0000380    0.0000038   -0.0001198
 F    2.7776546   -0.9543159    1.0117855  0.00   -0.0000844    0.0000328   -0.0000896
 F    1.7282185   -2.5788795    0.0529068  0.00    0.0000250    0.0001023   -0.0000602
19
 Energy =    -828.1500271044
 C   -0.5106105   -1.0898030   -0.0042252  0.00    0.0000478    0.0000745    0.0001909
 C   -1.6648486   -0.3297356   -0.0089053  0.00   -0.0001937    0.0000031    0.0002214
 C   -1.6212837    1.0562693   -0.0247834  0.00    0.0000469   -0.0001364    0.0000817
 C   -0.3901250    1.6827887   -0.0332959  0.00    0.0001721    0.0000072   -0.0000435
 C    0.8076566    0.9547998   -0.0273257  0.00   -0.0003401    0.0002069   -0.0000742
 C    0.7195659   -0.4491613   -0.0138018  0.00   -0.0001789   -0.0001307   -0.0001451
 H   -0.5756727   -2.1686588    0.0076917  0.00    0.0000854   -0.0000176   -0.0000794
 H   -2.5414452    1.6247938   -0.0270929  0.00    0.0000352    0.0001080   -0.0000515
 H   -0.3431658    2.7666524   -0.0477015  0.00   -0.0001474    0.0000168    0.0000012
 N   -2.9593927   -1.0063791    0.0039187  0.00    0.0000354   -0.0000221    0.0000061
 O   -3.9661808   -0.3021474   -0.0019318  0.00   -0.0000216    0.0000763   -0.0000919
 O   -2.9603001   -2.2344430    0.0198798  0.00    0.0000510   -0.0000247   -0.0000363
 N    2.0079665    1.6195521   -0.0922320  0.00    0.0007377   -0.0002221   -0.0000584
 H    1.9887856    2.6004725    0.1415634  0.00   -0.0003824    0.0000562   -0.0000006
 H    2.8424153    1.1407157    0.2094138  0.00   -0.0000029   -0.0000187    0.0000541
 C    1.9694905   -1.2713449   -0.0258871  0.00    0.0000558   -0.0000972    0.0002297
 F    2.6913627   -1.0611435   -1.1400818  0.00    0.0000359   -0.0000001   -0.0000885
 F    2.7775784   -0.9543348    1.0118745  0.00   -0.0000343    0.0000427   -0.0000803
 F    1.7282035   -2.5788929    0.0529227  0.00   -0.0000019    0.0000779   -0.0000355
19
 Energy =    -828.1500268910
 C   -0.5106079   -1.0898072   -0.0041354  0.00    0.0000034    0.0001615   -0.0000889
 C   -1.6648443   -0.3297320   -0.0088028  0.00   -0.0001196   -0.0000545   -0.0001695
 C   -1.6212739    1.0562700   -0.0247493  0.00    0.0000971   -0.0001137    0.0000290
 C   -0.3901115    1.6827861   -0.0333112  0.00    0.0000990    0.0000691   -0.0000082
 C    0.8076652    0.9547959   -0.0273366  0.00   -0.0002188    0.0001378    0.0001332
 C    0.7195646   -0.4491626   -0.0137947  0.00   -0.0000477   -0.0001991   -0.0000439
 H   -0.5756652   -2.1686626    0.0077327  0.00    0.0000615   -0.0000337   -0.0000020
 H   -2.5414297    1.6248027   -0.0271196  0.00    0.0000172    0.0000967    0.0000137
 H   -0.3431615    2.7666506   -0.0477602  0.00   -0.0001196    0.0000040    0.0000442
 N   -2.9593862   -1.0063707    0.0039145  0.00   -0.0000997   -0.0000853   -0.0002008
 O   -3.9661770   -0.3021404   -0.0020908  0.00    0.0000339    0.0000607    0.0002124
 O   -2.9603003   -2.2344360    0.0199117  0.00    0.0000683    0.0000287    0.0000411
 N    2.0080001    1.6195330   -0.0922181  0.00    0.0004339   -0.0001125    0.0000615
 H    1.9887199    2.6004572    0.1415736  0.00   -0.0002317    0.0000305   -0.0000655
 H    2.8423743    1.1407375    0.2097118  0.00   -0.0000061   -0.0000097   -0.0000573
 C    1.9694926   -1.2713489   -0.0259527  0.00   -0.0000257   -0.0000002    0.0001090
 F    2.6912286   -1.0612397   -1.1402518  0.00    0.0000882    0.0000307    0.0000088
 F    2.7776977   -0.9542442    1.0116876  0.00   -0.0000401   -0.0000525    0.0000246
 F    1.7282147   -2.5788885    0.0529912  0.00    0.0000065    0.0000414   -0.0000415
