16
 Energy =    -590.5663078652
 C    0.5070117    1.2722634   -0.0186069  0.00    0.1964829    0.1034865   -0.0031922
 C    1.3468515    0.1693337   -0.0180469  0.00   -0.0435495    0.0077559    0.0003704
 C    0.8448816   -1.1182059   -0.0171369  0.00    0.1707271   -0.0741399   -0.0014579
 C   -0.5194580   -1.3140159   -0.0192269  0.00   -0.1128659    0.0266523   -0.0024657
 C   -1.4015377   -0.2321862   -0.0219669  0.00    0.0128102   -0.0026972    0.0293451
 C   -0.8392279    1.0467435   -0.0201769  0.00   -0.1899882   -0.0166060   -0.0001408
 H    0.9038016    2.2758531   -0.0154769  0.00    0.0088503    0.0448445    0.0004820
 H    1.5286114   -1.9529257   -0.0153969  0.00    0.0264235   -0.0380245    0.0001594
 H   -0.9201079   -2.3192156   -0.0232369  0.00   -0.0162197   -0.0380597    0.0011051
 N    2.7878811    0.3816036   -0.0154969  0.00   -0.3030093   -0.0412255   -0.0003622
 O    3.5054509   -0.5986261   -0.0123269  0.00    0.2513934   -0.4655426    0.0013403
 O    3.1913110    1.5278533   -0.0164169  0.00    0.1065189    0.5206743   -0.0006792
 N   -2.7573774   -0.3796761   -0.0615869  0.00   -0.0827375   -0.0002958   -0.0869728
 H   -3.1538872   -1.2736159    0.1646931  0.00   -0.0163074   -0.0475371    0.0328475
 H   -3.3297072    0.4248536    0.1242131  0.00   -0.0304811    0.0403156    0.0288892
 F   -1.6944976    2.0899632   -0.0138069  0.00    0.0219525   -0.0196008    0.0007316
16
 Energy =    -590.5671876942
 C    0.5109176    1.2758046   -0.0173008  0.00    0.0781634    0.0349493   -0.0019967
 C    1.3500587    0.1694033   -0.0182407  0.00   -0.0238603    0.0032566   -0.0009322
 C    0.8495199   -1.1220455   -0.0152100  0.00    0.0601646   -0.0286495    0.0005111
 C   -0.5216486   -1.3146845   -0.0152986  0.00   -0.0390522    0.0239276    0.0039308
 C   -1.4072061   -0.2330114   -0.0221731  0.00    0.0509066   -0.0017290    0.0089863
 C   -0.8416808    1.0463335   -0.0162263  0.00   -0.0748326   -0.0170476    0.0105851
 H    0.9075078    2.2817463   -0.0144194  0.00   -0.0076867    0.0059507    0.0022496
 H    1.5338829   -1.9590490   -0.0132697  0.00   -0.0026082   -0.0057313    0.0024265
 H   -0.9236350   -2.3214700   -0.0121820  0.00   -0.0004568   -0.0103692   -0.0078196
 N    2.7936032    0.3832875   -0.0189619  0.00   -0.0926070   -0.0105594   -0.0005138
 O    3.5142848   -0.6090692   -0.0165460  0.00    0.0541998   -0.0619406    0.0002918
 O    3.1944923    1.5428104   -0.0216944  0.00    0.0347570    0.0742232   -0.0001239
 N   -2.7668517   -0.3805240   -0.0812243  0.00   -0.0443812    0.0017287   -0.0576568
 H   -3.1613751   -1.2733735    0.1621166  0.00   -0.0003522   -0.0127946    0.0255395
 H   -3.3361074    0.4247175    0.1220021  0.00   -0.0078727    0.0099129    0.0239138
 F   -1.6957624    2.0891242   -0.0013715  0.00    0.0155185   -0.0051279   -0.0093915
16
 Energy =    -590.5670675818
 C    0.5109957    1.2776064   -0.0273908  0.00    0.0088643   -0.0079037    0.0036763
 C    1.3484869    0.1690049   -0.0180594  0.00   -0.0097714    0.0013333    0.0147107
 C    0.8500360   -1.1246461   -0.0278277  0.00   -0.0006867    0.0028682   -0.0040528
 C   -0.5241686   -1.3148000   -0.0487394  0.00   -0.0005307    0.0098310   -0.0267067
 C   -1.4106888   -0.2335090   -0.0419949  0.00    0.0685963    0.0022798    0.0797959
 C   -0.8447090    1.0458607   -0.0471505  0.00   -0.0082197   -0.0069733   -0.0602662
 H    0.9064713    2.2844505   -0.0114384  0.00   -0.0094357   -0.0065716   -0.0178106
 H    1.5338399   -1.9627195   -0.0141889  0.00   -0.0092471    0.0055469   -0.0197984
 H   -0.9262525   -2.3217024   -0.0903456  0.00    0.0026255    0.0022008    0.0407331
 N    2.7920547    0.3834783    0.0051835  0.00    0.0162110    0.0042975    0.0089971
 O    3.5152620   -0.6124125    0.0162524  0.00   -0.0255814    0.0679901   -0.0014777
 O    3.1938144    1.5473286    0.0125641  0.00   -0.0043267   -0.0743772   -0.0012898
 N   -2.7745706   -0.3815816   -0.0572957  0.00   -0.0367765   -0.0006760   -0.0892680
 H   -3.1492270   -1.2687941    0.2378601  0.00    0.0058970   -0.0012248    0.0154617
 H   -3.3244596    0.4238490    0.1980554  0.00   -0.0057503    0.0010149    0.0033236
 F   -1.6968850    2.0885869   -0.0854840  0.00    0.0081321    0.0003641    0.0539719
16
 Energy =    -590.5673443385
 C    0.5117455    1.2784833   -0.0303162  0.00   -0.0259359   -0.0270340   -0.0034175
 C    1.3480328    0.1688935   -0.0220735  0.00   -0.0026681    0.0009763    0.0030973
 C    0.8511075   -1.1257764   -0.0265463  0.00   -0.0300200    0.0167921   -0.0042999
 C   -0.5243729   -1.3146446   -0.0318054  0.00    0.0150430   -0.0010873   -0.0071013
 C   -1.4107761   -0.2336611   -0.0367530  0.00    0.0786662    0.0070305    0.0177923
 C   -0.8454539    1.0456720   -0.0316717  0.00    0.0246403   -0.0030627    0.0007222
 H    0.9064625    2.2856618   -0.0352114  0.00   -0.0066735   -0.0081178    0.0150109
 H    1.5345259   -1.9641661   -0.0297713  0.00   -0.0079768    0.0075179    0.0126190
 H   -0.9270982   -2.3224924   -0.0379024  0.00    0.0052715    0.0082067   -0.0030739
 N    2.7911461    0.3836200    0.0003316  0.00    0.0667133    0.0106254   -0.0181306
 O    3.5159983   -0.6123051    0.0130820  0.00   -0.0507411    0.0877842    0.0010051
 O    3.1943751    1.5480217    0.0051777  0.00   -0.0232371   -0.1007255    0.0013178
 N   -2.7754839   -0.3823049   -0.0972361  0.00   -0.0293424    0.0002925   -0.0249382
 H   -3.1495774   -1.2655636    0.2124746  0.00   -0.0031217   -0.0052500    0.0111115
 H   -3.3236507    0.4216696    0.1689107  0.00   -0.0124274    0.0018947    0.0061131
 F   -1.6969808    2.0888924   -0.0206892  0.00    0.0018097    0.0041570   -0.0078279
16
 Energy =    -590.5673001665
 C    0.5118653    1.2779611   -0.0019640  0.00   -0.0130020   -0.0154262    0.0071924
 C    1.3482777    0.1690119   -0.0071608  0.00   -0.0030442    0.0008264   -0.0193895
 C    0.8510993   -1.1250402   -0.0011295  0.00   -0.0159487    0.0090113    0.0073883
 C   -0.5233978   -1.3142995   -0.0139248  0.00    0.0052263   -0.0016525    0.0139059
 C   -1.4090904   -0.2334040   -0.0323559  0.00    0.0551415    0.0061692   -0.0176599
 C   -0.8444536    1.0457452   -0.0153789  0.00    0.0100645   -0.0024545    0.0151091
 H    0.9061221    2.2846760    0.0238574  0.00   -0.0034519   -0.0022774   -0.0237712
 H    1.5341324   -1.9630993    0.0185672  0.00   -0.0032217    0.0026902   -0.0187870
 H   -0.9259412   -2.3219116   -0.0127219  0.00    0.0031655    0.0037105   -0.0075987
 N    2.7910985    0.3834721   -0.0344137  0.00    0.0405251    0.0062332    0.0396875
 O    3.5154294   -0.6110303   -0.0420249  0.00   -0.0267491    0.0405520   -0.0030519
 O    3.1944099    1.5461680   -0.0473730  0.00   -0.0141419   -0.0476649   -0.0025191
 N   -2.7724789   -0.3823551   -0.1278835  0.00   -0.0220352    0.0011903   -0.0073970
 H   -3.1535353   -1.2659053    0.1727826  0.00   -0.0037993   -0.0048425    0.0111026
 H   -3.3276179    0.4208988    0.1262692  0.00   -0.0102049    0.0011698    0.0084974
 F   -1.6959196    2.0891124   -0.0051456  0.00    0.0014762    0.0027650   -0.0027090
16
 Energy =    -590.5674103077
 C    0.5111393    1.2772110   -0.0223679  0.00    0.0064228   -0.0012506    0.0024299
 C    1.3477605    0.1689997   -0.0195115  0.00   -0.0050187    0.0011862    0.0036429
 C    0.8501325   -1.1243479   -0.0215749  0.00    0.0024626   -0.0006092    0.0024046
 C   -0.5233813   -1.3141098   -0.0280983  0.00   -0.0062740   -0.0006233   -0.0023534
 C   -1.4086612   -0.2332368   -0.0345828  0.00    0.0229887    0.0038034    0.0024375
 C   -0.8443053    1.0457499   -0.0287430  0.00   -0.0104972   -0.0021715   -0.0033418
 H    0.9053414    2.2839560   -0.0138141  0.00   -0.0013428    0.0021680   -0.0023032
 H    1.5330997   -1.9623028   -0.0173732  0.00    0.0004109   -0.0015016    0.0004201
 H   -0.9255531   -2.3214821   -0.0349355  0.00    0.0002305   -0.0006829   -0.0012379
 N    2.7907333    0.3832308   -0.0085440  0.00    0.0064205    0.0009927   -0.0019781
 O    3.5141737   -0.6100312   -0.0011072  0.00   -0.0001394   -0.0052152   -0.0000741
 O    3.1940729    1.5443398   -0.0070764  0.00   -0.0017402    0.0048649    0.0000575
 N   -2.7745285   -0.3829600   -0.1040622  0.00   -0.0127129    0.0016832   -0.0164222
 H   -3.1491083   -1.2653729    0.2086230  0.00    0.0001104   -0.0009353    0.0085063
 H   -3.3254645    0.4207850    0.1585180  0.00   -0.0042354   -0.0014619    0.0052316
 F   -1.6954510    2.0895715   -0.0253500  0.00    0.0029140   -0.0002469    0.0025803
16
 Energy =    -590.5674138542
 C    0.5109867    1.2772091   -0.0233396  0.00    0.0035382   -0.0013465   -0.0008942
 C    1.3474342    0.1689592   -0.0181442  0.00   -0.0036286    0.0007789   -0.0003282
 C    0.8499247   -1.1244624   -0.0199562  0.00    0.0007556    0.0000667    0.0021784
 C   -0.5236455   -1.3140341   -0.0310094  0.00   -0.0041549   -0.0016034   -0.0037976
 C   -1.4087008   -0.2331575   -0.0371464  0.00    0.0163220    0.0035458    0.0020308
 C   -0.8446139    1.0457457   -0.0294828  0.00   -0.0066872   -0.0013122    0.0031664
 H    0.9049250    2.2840793   -0.0188884  0.00   -0.0004997    0.0018176    0.0028689
 H    1.5327035   -1.9625226   -0.0116836  0.00    0.0009364   -0.0012166   -0.0036046
 H   -0.9257872   -2.3213811   -0.0430060  0.00   -0.0002195   -0.0003887    0.0037776
 N    2.7904948    0.3831853   -0.0076941  0.00    0.0075921    0.0008828   -0.0000926
 O    3.5139022   -0.6101054    0.0006170  0.00   -0.0007809   -0.0048265    0.0002943
 O    3.1938754    1.5442788   -0.0075009  0.00   -0.0022114    0.0045429   -0.0001658
 N   -2.7754518   -0.3833107   -0.1078676  0.00   -0.0077452    0.0010180   -0.0094915
 H   -3.1468237   -1.2641197    0.2139461  0.00   -0.0006565   -0.0008486    0.0052377
 H   -3.3238530    0.4199142    0.1625204  0.00   -0.0042953   -0.0010655    0.0021132
 F   -1.6953706    2.0897218   -0.0213643  0.00    0.0017348   -0.0000445   -0.0032927
16
 Energy =    -590.5674085424
 C    0.5106148    1.2772714   -0.0215484  0.00   -0.0065055   -0.0038608    0.0009069
 C    1.3467315    0.1688304   -0.0160731  0.00    0.0000245   -0.0003185   -0.0061365
 C    0.8496379   -1.1249471   -0.0223392  0.00   -0.0063568    0.0031071   -0.0040553
 C   -0.5243618   -1.3140484   -0.0338732  0.00    0.0038660   -0.0033571    0.0019944
 C   -1.4089903   -0.2331474   -0.0424575  0.00    0.0052751    0.0029974    0.0055931
 C   -0.8455145    1.0456357   -0.0348157  0.00    0.0063886    0.0009217   -0.0044511
 H    0.9038178    2.2844806   -0.0112128  0.00    0.0007696   -0.0006406   -0.0020302
 H    1.5322302   -1.9632928   -0.0223194  0.00    0.0005988    0.0008418    0.0068765
 H   -0.9266747   -2.3214835   -0.0403719  0.00   -0.0001856    0.0014254   -0.0053955
 N    2.7901206    0.3831740   -0.0046919  0.00    0.0147253    0.0015175    0.0017641
 O    3.5135659   -0.6105613    0.0027887  0.00   -0.0076443    0.0082612   -0.0002256
 O    3.1933596    1.5446955   -0.0028922  0.00   -0.0049108   -0.0097623    0.0002332
 N   -2.7777886   -0.3846620   -0.1156531  0.00    0.0031956    0.0004591    0.0098790
 H   -3.1412841   -1.2602479    0.2305793  0.00   -0.0031593   -0.0022612   -0.0037752
 H   -3.3200969    0.4182795    0.1697633  0.00   -0.0053092    0.0007059   -0.0055779
 F   -1.6953674    2.0900230   -0.0348828  0.00   -0.0007721   -0.0000367    0.0044001
16
 Energy =    -590.5674239472
 C    0.5109790    1.2772368   -0.0229862  0.00    0.0001620   -0.0011460    0.0007272
 C    1.3473111    0.1689350   -0.0185092  0.00   -0.0013740    0.0002615    0.0007575
 C    0.8498737   -1.1246213   -0.0215620  0.00   -0.0012208    0.0004107    0.0008818
 C   -0.5238899   -1.3139950   -0.0319345  0.00   -0.0000738   -0.0015684   -0.0013365
 C   -1.4086344   -0.2330120   -0.0384113  0.00    0.0015956    0.0020200   -0.0006522
 C   -0.8448863    1.0458049   -0.0312710  0.00   -0.0009253   -0.0002912   -0.0002445
 H    0.9045861    2.2843016   -0.0152131  0.00   -0.0001014    0.0001242   -0.0002604
 H    1.5325915   -1.9628479   -0.0161224  0.00    0.0002926    0.0001338   -0.0003173
 H   -0.9261884   -2.3213383   -0.0417557  0.00   -0.0001632    0.0003478    0.0002634
 N    2.7907042    0.3831855   -0.0066149  0.00    0.0049313    0.0005227   -0.0004348
 O    3.5138806   -0.6104090    0.0018463  0.00   -0.0019004    0.0011180   -0.0000434
 O    3.1938221    1.5444832   -0.0053966  0.00   -0.0014911   -0.0014940   -0.0000878
 N   -2.7765829   -0.3841294   -0.1110640  0.00    0.0012813    0.0003232    0.0003707
 H   -3.1447998   -1.2626226    0.2217554  0.00   -0.0002057    0.0007081    0.0007569
 H   -3.3236437    0.4189897    0.1636502  0.00   -0.0011823   -0.0013937   -0.0005616
 F   -1.6951229    2.0900386   -0.0264108  0.00    0.0003752   -0.0000767    0.0001809
16
 Energy =    -590.5674225845
 C    0.5109718    1.2772046   -0.0224494  0.00    0.0011232   -0.0000516   -0.0000027
 C    1.3473053    0.1689415   -0.0178206  0.00   -0.0009512    0.0001952   -0.0009019
 C    0.8498179   -1.1245773   -0.0211444  0.00    0.0000516   -0.0002602    0.0000504
 C   -0.5238876   -1.3139820   -0.0321102  0.00   -0.0002519   -0.0008157   -0.0004394
 C   -1.4085445   -0.2329375   -0.0386654  0.00   -0.0008620    0.0012355    0.0007447
 C   -0.8448641    1.0458601   -0.0312554  0.00   -0.0012688   -0.0002848    0.0002064
 H    0.9045860    2.2842664   -0.0149593  0.00   -0.0000302    0.0002089    0.0001567
 H    1.5325588   -1.9627839   -0.0160725  0.00    0.0003096   -0.0000073    0.0001049
 H   -0.9262297   -2.3212832   -0.0419298  0.00   -0.0002584    0.0000593   -0.0000411
 N    2.7907844    0.3831656   -0.0067487  0.00    0.0010208    0.0000504    0.0002379
 O    3.5138295   -0.6104107    0.0014164  0.00    0.0000973   -0.0010257    0.0001014
 O    3.1938294    1.5443915   -0.0059192  0.00   -0.0002044    0.0010913    0.0000344
 N   -2.7765163   -0.3842586   -0.1110763  0.00    0.0015219    0.0000027   -0.0004164
 H   -3.1446243   -1.2625812    0.2222957  0.00   -0.0000467    0.0005546    0.0005159
 H   -3.3239591    0.4188621    0.1628041  0.00   -0.0005074   -0.0008099   -0.0003008
 F   -1.6950574    2.0901225   -0.0263649  0.00    0.0002567   -0.0001426   -0.0000503
16
 Energy =    -590.5674223471
 C    0.5109820    1.2772181   -0.0225708  0.00    0.0004045    0.0001113   -0.0000199
 C    1.3472810    0.1689409   -0.0180853  0.00   -0.0001594    0.0000772   -0.0000271
 C    0.8497891   -1.1245957   -0.0213870  0.00   -0.0000718   -0.0002440   -0.0000023
 C   -0.5239372   -1.3139806   -0.0323868  0.00    0.0005311   -0.0001332   -0.0001120
 C   -1.4085342   -0.2328684   -0.0386937  0.00   -0.0012494    0.0004843    0.0000986
 C   -0.8449101    1.0459129   -0.0313359  0.00    0.0001497   -0.0001699    0.0001184
 H    0.9045901    2.2842965   -0.0149081  0.00   -0.0000339   -0.0000481    0.0000465
 H    1.5325626   -1.9627949   -0.0162867  0.00    0.0000971    0.0001418    0.0000096
 H   -0.9263607   -2.3212472   -0.0423255  0.00   -0.0001939    0.0000718   -0.0000303
 N    2.7908552    0.3831528   -0.0065999  0.00   -0.0005991   -0.0000798    0.0002525
 O    3.5138161   -0.6104958    0.0018910  0.00    0.0002656    0.0000394   -0.0001638
 O    3.1938370    1.5444151   -0.0057337  0.00    0.0002476    0.0000244   -0.0001329
 N   -2.7765120   -0.3844470   -0.1111395  0.00    0.0010630   -0.0003119    0.0000746
 H   -3.1442851   -1.2623870    0.2236135  0.00   -0.0002165    0.0000316    0.0000620
 H   -3.3241417    0.4186773    0.1623119  0.00   -0.0002040    0.0000410   -0.0001134
 F   -1.6950321    2.0902030   -0.0263635  0.00   -0.0000306   -0.0000361   -0.0000602
16
 Energy =    -590.5674222465
 C    0.5110004    1.2772258   -0.0224396  0.00    0.0000712    0.0000633   -0.0000774
 C    1.3472829    0.1689418   -0.0180085  0.00    0.0001672    0.0000696   -0.0000775
 C    0.8497953   -1.1245994   -0.0212982  0.00   -0.0001498   -0.0002121   -0.0000307
 C   -0.5239344   -1.3139754   -0.0322991  0.00    0.0004845    0.0000976   -0.0000294
 C   -1.4085419   -0.2328504   -0.0385748  0.00   -0.0004688    0.0001877   -0.0001427
 C   -0.8449056    1.0459243   -0.0312114  0.00    0.0002755   -0.0001487    0.0000256
 H    0.9046156    2.2843023   -0.0147809  0.00   -0.0000549   -0.0000627    0.0000343
 H    1.5325904   -1.9627832   -0.0162560  0.00    0.0000162    0.0001178    0.0000201
 H   -0.9263915   -2.3212284   -0.0423131  0.00   -0.0001243    0.0000522    0.0000129
 N    2.7908710    0.3831482   -0.0066713  0.00   -0.0005354   -0.0000585   -0.0003072
 O    3.5138346   -0.6105083    0.0016747  0.00    0.0000863    0.0002568    0.0002466
 O    3.1938594    1.5444159   -0.0058761  0.00    0.0001455   -0.0002362    0.0001490
 N   -2.7764686   -0.3844982   -0.1111396  0.00    0.0003489   -0.0002827   -0.0000045
 H   -3.1443121   -1.2623867    0.2236579  0.00   -0.0001475   -0.0000238    0.0000673
 H   -3.3242741    0.4186550    0.1618554  0.00   -0.0000314    0.0001325    0.0000643
 F   -1.6950214    2.0902165   -0.0263193  0.00   -0.0000831    0.0000472    0.0000493
