19
 Energy =    -679.7818154478
 C   -0.5796368   -0.9503980    0.0000000  0.00   -0.0380230   -0.1335906   -0.0000000
 C   -1.6841375   -0.1362788    0.0000000  0.00    0.0615535    0.1120794   -0.0000000
 C   -1.5518394    1.2504971    0.0000000  0.00   -0.2581474   -0.0841608   -0.0000000
 C   -0.3053200    1.8070305    0.0000000  0.00    0.2266763   -0.0240042   -0.0000000
 C    0.8562338    1.0069536    0.0000000  0.00   -0.1040816   -0.0948378   -0.0000000
 C    0.6976767   -0.4019361    0.0000000  0.00   -0.0149064    0.1357854   -0.0000000
 H   -0.7089702   -2.0209266    0.0000000  0.00   -0.0019773   -0.0552687   -0.0000000
 H   -2.4392875    1.8653767    0.0000000  0.00   -0.0353143    0.0320200   -0.0000000
 H   -0.1941312    2.8835142    0.0000000  0.00    0.0026396    0.0450026   -0.0000000
 N   -3.0128299   -0.7289675    0.0000000  0.00    0.2469049    0.1113580   -0.0000000
 O   -3.9664024    0.0255651    0.0000000  0.00   -0.3570316    0.3717708   -0.0000000
 O   -3.0976198   -1.9407006    0.0000000  0.00    0.0363510   -0.5142962   -0.0000000
 N    2.0671752    1.5896641    0.0000000  0.00    0.1423768    0.0476359   -0.0000000
 H    2.1453031    2.5894021    0.0000000  0.00    0.0055704    0.0622235   -0.0000000
 H    2.8912037    1.0074227    0.0000000  0.00    0.0397768   -0.0117500   -0.0000000
 C    1.8729554   -1.2802747    0.0000000  0.00   -0.0866632   -0.0585889   -0.0000000
 O    3.0264561   -0.9071503    0.0000000  0.00    0.2858034    0.1511911   -0.0000000
 O    1.5723550   -2.5873825    0.0000000  0.00   -0.2678811   -0.0859082   -0.0000000
 H    2.4108156   -3.0714111    0.0000000  0.00    0.1163733   -0.0066615   -0.0000000
19
 Energy =    -679.7828427830
 C   -0.5791809   -0.9548905    0.0000000  0.00   -0.0198054   -0.0617714   -0.0000000
 C   -1.6857583   -0.1384482    0.0000000  0.00    0.0313367    0.0564661   -0.0000000
 C   -1.5574298    1.2489368    0.0000000  0.00   -0.0976811   -0.0346319   -0.0000000
 C   -0.3019233    1.8048404    0.0000000  0.00    0.0937324   -0.0113512   -0.0000000
 C    0.8621592    1.0086794    0.0000000  0.00   -0.0561097   -0.0324593   -0.0000000
 C    0.6992474   -0.3985165    0.0000000  0.00   -0.0059393    0.0819443   -0.0000000
 H   -0.7058996   -2.0283322    0.0000000  0.00    0.0029343    0.0006602   -0.0000000
 H   -2.4462260    1.8657781    0.0000000  0.00    0.0039340    0.0102381   -0.0000000
 H   -0.1908677    2.8834902    0.0000000  0.00   -0.0079319    0.0124220   -0.0000000
 N   -3.0172323   -0.7343346    0.0000000  0.00    0.0664438    0.0296953   -0.0000000
 O   -3.9773216    0.0302929    0.0000000  0.00   -0.0621001    0.0419608   -0.0000000
 O   -3.0954285   -1.9578572    0.0000000  0.00   -0.0103908   -0.0760585   -0.0000000
 N    2.0780144    1.5967599    0.0000000  0.00    0.0431631    0.0109241   -0.0000000
 H    2.1535697    2.5991790    0.0000000  0.00   -0.0050212    0.0047053   -0.0000000
 H    2.9055426    1.0167242    0.0000000  0.00   -0.0001042    0.0042624   -0.0000000
 C    1.8758524   -1.2779463    0.0000000  0.00    0.0117868   -0.0069820   -0.0000000
 O    3.0361957   -0.9056076    0.0000000  0.00    0.0210259    0.0077426   -0.0000000
 O    1.5539538   -2.5840172    0.0000000  0.00   -0.0496417   -0.0454828   -0.0000000
 H    2.3927328   -3.0747308    0.0000000  0.00    0.0403682    0.0077156   -0.0000000
19
 Energy =    -679.7829074388
 C   -0.5820322   -0.9571020    0.0000000  0.00   -0.0017113   -0.0177310   -0.0000000
 C   -1.6871568   -0.1367533    0.0000000  0.00    0.0119045    0.0193371   -0.0000000
 C   -1.5602543    1.2501488    0.0000000  0.00   -0.0285560   -0.0155520   -0.0000000
 C   -0.3008674    1.8035885    0.0000000  0.00    0.0296320   -0.0002778   -0.0000000
 C    0.8613165    1.0065474    0.0000000  0.00   -0.0144958   -0.0060970   -0.0000000
 C    0.6973054   -0.3994868    0.0000000  0.00   -0.0020633    0.0136158   -0.0000000
 H   -0.7096126   -2.0304916    0.0000000  0.00    0.0027482    0.0021424   -0.0000000
 H   -2.4478343    1.8691458    0.0000000  0.00    0.0080369    0.0037240   -0.0000000
 H   -0.1888257    2.8828657    0.0000000  0.00   -0.0072476    0.0004631   -0.0000000
 N   -3.0195475   -0.7319716    0.0000000  0.00    0.0087500    0.0024587   -0.0000000
 O   -3.9812255    0.0345112    0.0000000  0.00    0.0018324   -0.0121015   -0.0000000
 O   -3.0989648   -1.9578554    0.0000000  0.00   -0.0081126    0.0084772   -0.0000000
 N    2.0787962    1.5955595    0.0000000  0.00    0.0117313    0.0042016   -0.0000000
 H    2.1531386    2.5983692    0.0000000  0.00   -0.0060185   -0.0024912   -0.0000000
 H    2.9069223    1.0164740    0.0000000  0.00   -0.0033259    0.0031333   -0.0000000
 C    1.8759523   -1.2798895    0.0000000  0.00    0.0197516    0.0009840   -0.0000000
 O    3.0358419   -0.9036479    0.0000000  0.00   -0.0063283   -0.0063968   -0.0000000
 O    1.5606884   -2.5892142    0.0000000  0.00   -0.0258725   -0.0126770   -0.0000000
 H    2.4063594   -3.0707978    0.0000000  0.00    0.0093448    0.0147871   -0.0000000
19
 Energy =    -679.7829165782
 C   -0.5813977   -0.9576200    0.0000000  0.00   -0.0000981   -0.0022116   -0.0000000
 C   -1.6861321   -0.1364385    0.0000000  0.00    0.0026464    0.0050606   -0.0000000
 C   -1.5603773    1.2500862    0.0000000  0.00   -0.0054260   -0.0073824   -0.0000000
 C   -0.3001274    1.8033224    0.0000000  0.00    0.0077056    0.0024965   -0.0000000
 C    0.8616764    1.0066268    0.0000000  0.00   -0.0062258   -0.0019924   -0.0000000
 C    0.6977081   -0.3991834    0.0000000  0.00    0.0005076    0.0034710   -0.0000000
 H   -0.7086405   -2.0309523    0.0000000  0.00    0.0011412    0.0023221   -0.0000000
 H   -2.4472988    1.8697239    0.0000000  0.00    0.0048010    0.0027791   -0.0000000
 H   -0.1889439    2.8827797    0.0000000  0.00   -0.0051141   -0.0010882   -0.0000000
 N   -3.0183173   -0.7321320    0.0000000  0.00   -0.0053255   -0.0037758   -0.0000000
 O   -3.9808167    0.0335866    0.0000000  0.00    0.0086875   -0.0100915   -0.0000000
 O   -3.0980496   -1.9581910    0.0000000  0.00   -0.0020244    0.0132136   -0.0000000
 N    2.0788342    1.5972598    0.0000000  0.00    0.0057455   -0.0056137   -0.0000000
 H    2.1509772    2.6001630    0.0000000  0.00   -0.0031483   -0.0019109   -0.0000000
 H    2.9078446    1.0197661    0.0000000  0.00   -0.0010773    0.0017224   -0.0000000
 C    1.8754688   -1.2812196    0.0000000  0.00    0.0124942    0.0070022   -0.0000000
 O    3.0361011   -0.9073653    0.0000000  0.00   -0.0104743   -0.0027644   -0.0000000
 O    1.5573110   -2.5901372    0.0000000  0.00   -0.0075498   -0.0089756   -0.0000000
 H    2.4041800   -3.0700751    0.0000000  0.00    0.0027346    0.0077387   -0.0000000
19
 Energy =    -679.7829177756
 C   -0.5816306   -0.9579308    0.0000000  0.00   -0.0000567    0.0038998   -0.0000000
 C   -1.6860264   -0.1362473    0.0000000  0.00   -0.0011444   -0.0020736   -0.0000000
 C   -1.5603698    1.2500212    0.0000000  0.00    0.0035421   -0.0023297   -0.0000000
 C   -0.2998192    1.8031131    0.0000000  0.00   -0.0016632    0.0025047   -0.0000000
 C    0.8614460    1.0061222    0.0000000  0.00    0.0012098    0.0039784   -0.0000000
 C    0.6972475   -0.3992072    0.0000000  0.00    0.0007661   -0.0051499   -0.0000000
 H   -0.7087354   -2.0311217    0.0000000  0.00    0.0000503   -0.0000159   -0.0000000
 H   -2.4465118    1.8704775    0.0000000  0.00    0.0010941    0.0021430   -0.0000000
 H   -0.1893542    2.8825858    0.0000000  0.00   -0.0025818   -0.0004790   -0.0000000
 N   -3.0181722   -0.7319478    0.0000000  0.00   -0.0058893   -0.0033990   -0.0000000
 O   -3.9807021    0.0333250    0.0000000  0.00    0.0036508   -0.0005313   -0.0000000
 O   -3.0983617   -1.9577320    0.0000000  0.00    0.0019132    0.0036230   -0.0000000
 N    2.0789725    1.5962333    0.0000000  0.00    0.0002772   -0.0028165   -0.0000000
 H    2.1507293    2.5990546    0.0000000  0.00   -0.0014438    0.0005807   -0.0000000
 H    2.9079196    1.0188835    0.0000000  0.00    0.0002376    0.0002398   -0.0000000
 C    1.8749785   -1.2810559    0.0000000  0.00    0.0007633    0.0052997   -0.0000000
 O    3.0352844   -0.9069757    0.0000000  0.00   -0.0008791   -0.0028839   -0.0000000
 O    1.5572813   -2.5902897    0.0000000  0.00   -0.0005352   -0.0035369   -0.0000000
 H    2.4058242   -3.0673080    0.0000000  0.00    0.0006889    0.0009466   -0.0000000
19
 Energy =    -679.7829198191
 C   -0.5816196   -0.9578322    0.0000000  0.00    0.0002717    0.0022192   -0.0000000
 C   -1.6860508   -0.1362738    0.0000000  0.00   -0.0007001   -0.0015054   -0.0000000
 C   -1.5602317    1.2499390    0.0000000  0.00    0.0010733   -0.0011046   -0.0000000
 C   -0.2998355    1.8031753    0.0000000  0.00    0.0000383    0.0007548   -0.0000000
 C    0.8614795    1.0061867    0.0000000  0.00    0.0006049    0.0019424   -0.0000000
 C    0.6972935   -0.3992469    0.0000000  0.00    0.0002160   -0.0028755   -0.0000000
 H   -0.7086965   -2.0310058    0.0000000  0.00   -0.0000297   -0.0005368   -0.0000000
 H   -2.4461353    1.8707245    0.0000000  0.00    0.0003150    0.0014006   -0.0000000
 H   -0.1898960    2.8826557    0.0000000  0.00   -0.0012803    0.0000763   -0.0000000
 N   -3.0182066   -0.7319871    0.0000000  0.00   -0.0020974   -0.0011984   -0.0000000
 O   -3.9805715    0.0333104    0.0000000  0.00    0.0003483    0.0013167   -0.0000000
 O   -3.0983252   -1.9576506    0.0000000  0.00    0.0012046   -0.0003215   -0.0000000
 N    2.0789724    1.5962548    0.0000000  0.00    0.0003312   -0.0017324   -0.0000000
 H    2.1504148    2.5991025    0.0000000  0.00   -0.0005436    0.0004640   -0.0000000
 H    2.9080178    1.0190716    0.0000000  0.00    0.0003268    0.0000041   -0.0000000
 C    1.8748955   -1.2812388    0.0000000  0.00   -0.0009741    0.0029959   -0.0000000
 O    3.0352487   -0.9075310    0.0000000  0.00    0.0011512   -0.0001981   -0.0000000
 O    1.5572037   -2.5905782    0.0000000  0.00   -0.0005566   -0.0016112   -0.0000000
 H    2.4060428   -3.0670760    0.0000000  0.00    0.0003001   -0.0000903   -0.0000000
19
 Energy =    -679.7829208488
 C   -0.5816418   -0.9577801    0.0000000  0.00    0.0001079    0.0003182   -0.0000000
 C   -1.6861526   -0.1363546    0.0000000  0.00    0.0000177   -0.0002835   -0.0000000
 C   -1.5601534    1.2498598    0.0000000  0.00   -0.0007580   -0.0004410   -0.0000000
 C   -0.2998374    1.8031991    0.0000000  0.00    0.0009305   -0.0001970   -0.0000000
 C    0.8615283    1.0062294    0.0000000  0.00    0.0000409    0.0005238   -0.0000000
 C    0.6972920   -0.3992640    0.0000000  0.00   -0.0001552   -0.0006424   -0.0000000
 H   -0.7086699   -2.0309862    0.0000000  0.00    0.0000211   -0.0002009   -0.0000000
 H   -2.4458745    1.8709541    0.0000000  0.00    0.0001863    0.0004983   -0.0000000
 H   -0.1902962    2.8827055    0.0000000  0.00   -0.0003984    0.0001834   -0.0000000
 N   -3.0183523   -0.7320639    0.0000000  0.00    0.0003161    0.0002530   -0.0000000
 O   -3.9805971    0.0333561    0.0000000  0.00   -0.0004833    0.0005680   -0.0000000
 O   -3.0983667   -1.9577048    0.0000000  0.00    0.0001182   -0.0007943   -0.0000000
 N    2.0790635    1.5961436    0.0000000  0.00    0.0000468   -0.0001858   -0.0000000
 H    2.1504065    2.5990171    0.0000000  0.00   -0.0000816    0.0001087   -0.0000000
 H    2.9081301    1.0189785    0.0000000  0.00    0.0000730   -0.0000208   -0.0000000
 C    1.8748771   -1.2811793    0.0000000  0.00   -0.0008696    0.0006544   -0.0000000
 O    3.0352705   -0.9075761    0.0000000  0.00    0.0007267    0.0000558   -0.0000000
 O    1.5572000   -2.5906243    0.0000000  0.00    0.0002452   -0.0001085   -0.0000000
 H    2.4061737   -3.0669099    0.0000000  0.00   -0.0000842   -0.0002893   -0.0000000
19
 Energy =    -679.7829208767
 C   -0.5816446   -0.9577772    0.0000000  0.00    0.0000048   -0.0000051   -0.0000000
 C   -1.6861787   -0.1363776    0.0000000  0.00    0.0000473   -0.0000228   -0.0000000
 C   -1.5601547    1.2498412    0.0000000  0.00   -0.0004984   -0.0002155   -0.0000000
 C   -0.2998241    1.8031859    0.0000000  0.00    0.0004453   -0.0001044   -0.0000000
 C    0.8615509    1.0062433    0.0000000  0.00    0.0000280    0.0000918   -0.0000000
 C    0.6972911   -0.3992669    0.0000000  0.00   -0.0000819   -0.0001343   -0.0000000
 H   -0.7086528   -2.0309983    0.0000000  0.00    0.0000298   -0.0000002   -0.0000000
 H   -2.4458063    1.8710504    0.0000000  0.00    0.0001617    0.0001737   -0.0000000
 H   -0.1903993    2.8827109    0.0000000  0.00   -0.0001621    0.0000478   -0.0000000
 N   -3.0183848   -0.7320839    0.0000000  0.00    0.0002035    0.0001726   -0.0000000
 O   -3.9806238    0.0333699    0.0000000  0.00   -0.0000610    0.0000145   -0.0000000
 O   -3.0983788   -1.9577427    0.0000000  0.00   -0.0000378   -0.0001461   -0.0000000
 N    2.0790915    1.5961401    0.0000000  0.00   -0.0000609    0.0000287   -0.0000000
 H    2.1504013    2.5990220    0.0000000  0.00    0.0000030   -0.0000089   -0.0000000
 H    2.9081705    1.0189872    0.0000000  0.00   -0.0000116   -0.0000229   -0.0000000
 C    1.8748767   -1.2811573    0.0000000  0.00   -0.0002458    0.0000204   -0.0000000
 O    3.0352962   -0.9075841    0.0000000  0.00    0.0000811    0.0000354   -0.0000000
 O    1.5572003   -2.5906296    0.0000000  0.00    0.0003092    0.0001935   -0.0000000
 H    2.4061693   -3.0669333    0.0000000  0.00   -0.0001543   -0.0001184   -0.0000000
19
 Energy =    -679.7829210882
 C   -0.5816466   -0.9577808    0.0000000  0.00   -0.0000259   -0.0000851   -0.0000000
 C   -1.6861868   -0.1363876    0.0000000  0.00    0.0000816    0.0000713   -0.0000000
 C   -1.5601609    1.2498316    0.0000000  0.00   -0.0001781   -0.0000869   -0.0000000
 C   -0.2998183    1.8031717    0.0000000  0.00    0.0000902    0.0000370   -0.0000000
 C    0.8615573    1.0062438    0.0000000  0.00   -0.0000351   -0.0001117   -0.0000000
 C    0.6972867   -0.3992707    0.0000000  0.00   -0.0000059    0.0001292   -0.0000000
 H   -0.7086451   -2.0310051    0.0000000  0.00    0.0000144    0.0000414   -0.0000000
 H   -2.4457710    1.8710993    0.0000000  0.00    0.0000710    0.0000272   -0.0000000
 H   -0.1904456    2.8827048    0.0000000  0.00   -0.0000371   -0.0000089   -0.0000000
 N   -3.0183884   -0.7320871    0.0000000  0.00    0.0000789    0.0000375   -0.0000000
 O   -3.9806242    0.0333764    0.0000000  0.00    0.0000030   -0.0001135   -0.0000000
 O   -3.0983848   -1.9577520    0.0000000  0.00   -0.0000506    0.0000674   -0.0000000
 N    2.0790967    1.5961332    0.0000000  0.00   -0.0000163    0.0001073   -0.0000000
 H    2.1504038    2.5990160    0.0000000  0.00    0.0000120   -0.0000245   -0.0000000
 H    2.9081745    1.0189767    0.0000000  0.00   -0.0000247   -0.0000093   -0.0000000
 C    1.8748777   -1.2811391    0.0000000  0.00    0.0000407   -0.0002374   -0.0000000
 O    3.0353010   -0.9075620    0.0000000  0.00   -0.0000808    0.0000094   -0.0000000
 O    1.5572140   -2.5906156    0.0000000  0.00    0.0001181    0.0001690   -0.0000000
 H    2.4061600   -3.0669536    0.0000000  0.00   -0.0000554   -0.0000196   -0.0000000
