18
 Energy =    -692.9572612916
 C   -0.4801310   -1.1191477    0.0000000  0.00   -0.0865311   -0.1278389   -0.0000000
 C   -1.5513083   -0.2679768    0.0000000  0.00   -0.1510597   -0.1623717   -0.0000000
 C   -1.3689572    1.1138415    0.0000000  0.00    0.0046082    0.1101663   -0.0000000
 C   -0.1044799    1.6238554    0.0000000  0.00   -0.0901859    0.1335665   -0.0000000
 C    1.0394354    0.7935033    0.0000000  0.00    0.1574162   -0.0084459   -0.0000000
 C    0.8050623   -0.6004955    0.0000000  0.00    0.1123051   -0.0597397   -0.0000000
 H   -0.6244593   -2.1876943    0.0000000  0.00    0.0207023    0.1958767   -0.0000000
 H   -2.2330768    1.7610016    0.0000000  0.00    0.1577285   -0.0832899   -0.0000000
 H    0.0443798    2.6955859    0.0000000  0.00   -0.0289732   -0.1647105   -0.0000000
 N   -2.9025102   -0.8155768    0.0000000  0.00   -0.7020814   -0.3001481   -0.0000000
 O   -3.8251352   -0.0250676    0.0000000  0.00    0.8748397   -0.8051619   -0.0000000
 O   -3.0264236   -2.0219679    0.0000000  0.00    0.0766272    1.1959127   -0.0000000
 N    2.2559680    1.3587750    0.0000000  0.00    0.1326407    0.0361374   -0.0000000
 H    2.3389912    2.3585123    0.0000000  0.00   -0.0274926   -0.3403776   -0.0000000
 H    3.0739413    0.7731192    0.0000000  0.00   -0.2973078    0.2816649   -0.0000000
 N    1.8938270   -1.5622573    0.0000000  0.00    0.6417077   -0.5912210   -0.0000000
 O    3.0430839   -1.1372570    0.0000000  0.00   -1.1003968   -0.5134092   -0.0000000
 O    1.6217925   -2.7407535    0.0000000  0.00    0.3054530    1.2033899   -0.0000000
18
 Energy =    -692.9634081021
 C   -0.4764695   -1.1189355    0.0000000  0.00   -0.0326916    0.0242071   -0.0000000
 C   -1.5446055   -0.2709930    0.0000000  0.00    0.0260276   -0.0283970   -0.0000000
 C   -1.3612196    1.1097587    0.0000000  0.00    0.0144439    0.0128007   -0.0000000
 C   -0.1021709    1.6193616    0.0000000  0.00   -0.0315738    0.0399103   -0.0000000
 C    1.0429236    0.7918726    0.0000000  0.00   -0.0215009   -0.0976089   -0.0000000
 C    0.8086305   -0.6018851    0.0000000  0.00   -0.0260673    0.1027713   -0.0000000
 H   -0.6205255   -2.1782104    0.0000000  0.00    0.0007552    0.0330310   -0.0000000
 H   -2.2168699    1.7543829    0.0000000  0.00    0.0276512    0.0027652   -0.0000000
 H    0.0431101    2.6835706    0.0000000  0.00   -0.0042019   -0.0190294   -0.0000000
 N   -2.8834869   -0.8147186    0.0000000  0.00   -0.1452714   -0.0567814   -0.0000000
 O   -3.7885321   -0.0442464    0.0000000  0.00    0.0480031    0.0069586   -0.0000000
 O   -3.0076676   -1.9945700    0.0000000  0.00    0.0382775    0.0288067   -0.0000000
 N    2.2467245    1.3704719    0.0000000  0.00    0.0013544   -0.0792243   -0.0000000
 H    2.3123388    2.3579157    0.0000000  0.00    0.0170779   -0.0157906   -0.0000000
 H    3.0631689    0.8110011    0.0000000  0.00    0.0262690    0.0399991   -0.0000000
 N    1.8788120   -1.5715449    0.0000000  0.00    0.2345814   -0.1177236   -0.0000000
 O    3.0117786   -1.1840072    0.0000000  0.00   -0.1188875    0.1074834   -0.0000000
 O    1.5940603   -2.7192239    0.0000000  0.00   -0.0542468    0.0158216   -0.0000000
18
 Energy =    -692.9635515326
 C   -0.4822425   -1.1202413    0.0000000  0.00   -0.0101456    0.0230043   -0.0000000
 C   -1.5504121   -0.2724598    0.0000000  0.00    0.0417266   -0.0138645   -0.0000000
 C   -1.3616770    1.1089528    0.0000000  0.00    0.0109025   -0.0044382   -0.0000000
 C   -0.1023548    1.6162479    0.0000000  0.00   -0.0254667    0.0171618   -0.0000000
 C    1.0398720    0.7842928    0.0000000  0.00    0.0200975   -0.0196061   -0.0000000
 C    0.8038355   -0.6035145    0.0000000  0.00   -0.0301806    0.0252619   -0.0000000
 H   -0.6266799   -2.1774911    0.0000000  0.00   -0.0004792   -0.0157298   -0.0000000
 H   -2.2131196    1.7569164    0.0000000  0.00    0.0019039    0.0132747   -0.0000000
 H    0.0454060    2.6788194    0.0000000  0.00   -0.0019225    0.0037968   -0.0000000
 N   -2.8927860   -0.8140296    0.0000000  0.00   -0.0192230   -0.0031501   -0.0000000
 O   -3.7928438   -0.0406852    0.0000000  0.00   -0.0212199    0.0409072   -0.0000000
 O   -3.0171688   -1.9919189    0.0000000  0.00    0.0128501   -0.0478849   -0.0000000
 N    2.2483428    1.3536608    0.0000000  0.00   -0.0238541    0.0068096   -0.0000000
 H    2.3208035    2.3394206    0.0000000  0.00    0.0034245    0.0209504   -0.0000000
 H    3.0629296    0.7928770    0.0000000  0.00    0.0099043    0.0352432   -0.0000000
 N    1.8884263   -1.5594274    0.0000000  0.00    0.0237100   -0.0210637   -0.0000000
 O    3.0071227   -1.1411238    0.0000000  0.00    0.0374323   -0.0355515   -0.0000000
 O    1.6225460   -2.7102963    0.0000000  0.00   -0.0294601   -0.0251210   -0.0000000
18
 Energy =    -692.9636541718
 C   -0.4804919   -1.1188569    0.0000000  0.00   -0.0091562    0.0067380   -0.0000000
 C   -1.5491012   -0.2725305    0.0000000  0.00    0.0212626   -0.0079711   -0.0000000
 C   -1.3603752    1.1088471    0.0000000  0.00   -0.0046393   -0.0038780   -0.0000000
 C   -0.1015620    1.6160823    0.0000000  0.00   -0.0096148    0.0059700   -0.0000000
 C    1.0424392    0.7851096    0.0000000  0.00    0.0044354   -0.0275330   -0.0000000
 C    0.8067051   -0.6038738    0.0000000  0.00   -0.0151477    0.0296481   -0.0000000
 H   -0.6251381   -2.1763829    0.0000000  0.00    0.0002383   -0.0076472   -0.0000000
 H   -2.2112001    1.7578029    0.0000000  0.00    0.0014231    0.0097875   -0.0000000
 H    0.0452476    2.6788067    0.0000000  0.00   -0.0002578    0.0031635   -0.0000000
 N   -2.8926898   -0.8152059    0.0000000  0.00   -0.0061629   -0.0017157   -0.0000000
 O   -3.7927457   -0.0407582    0.0000000  0.00    0.0008987    0.0025922   -0.0000000
 O   -3.0153493   -1.9940428    0.0000000  0.00    0.0018607   -0.0020893   -0.0000000
 N    2.2476745    1.3624357    0.0000000  0.00   -0.0149508   -0.0211085   -0.0000000
 H    2.3125451    2.3492899    0.0000000  0.00    0.0064785    0.0046684   -0.0000000
 H    3.0677752    0.8100810    0.0000000  0.00    0.0147923    0.0165989   -0.0000000
 N    1.8871368   -1.5687364    0.0000000  0.00    0.0178161   -0.0067637   -0.0000000
 O    3.0098831   -1.1606311    0.0000000  0.00   -0.0057494   -0.0007501   -0.0000000
 O    1.6092467   -2.7174367    0.0000000  0.00   -0.0035268    0.0002901   -0.0000000
18
 Energy =    -692.9636624805
 C   -0.4808297   -1.1190974    0.0000000  0.00   -0.0066956   -0.0020568   -0.0000000
 C   -1.5488642   -0.2728172    0.0000000  0.00    0.0062395   -0.0019724   -0.0000000
 C   -1.3602887    1.1088608    0.0000000  0.00   -0.0041722   -0.0021805   -0.0000000
 C   -0.1014595    1.6156302    0.0000000  0.00   -0.0030131    0.0027777   -0.0000000
 C    1.0427308    0.7839491    0.0000000  0.00    0.0025268   -0.0077952   -0.0000000
 C    0.8063067   -0.6039483    0.0000000  0.00   -0.0007810    0.0097548   -0.0000000
 H   -0.6254175   -2.1769997    0.0000000  0.00    0.0009393   -0.0001530   -0.0000000
 H   -2.2103723    1.7591513    0.0000000  0.00    0.0024035    0.0032418   -0.0000000
 H    0.0455872    2.6784430    0.0000000  0.00    0.0001310    0.0007062   -0.0000000
 N   -2.8929117   -0.8154367    0.0000000  0.00    0.0035796    0.0018349   -0.0000000
 O   -3.7925075   -0.0405103    0.0000000  0.00   -0.0015828   -0.0012698   -0.0000000
 O   -3.0154299   -1.9942790    0.0000000  0.00   -0.0022105   -0.0001311   -0.0000000
 N    2.2475879    1.3626680    0.0000000  0.00   -0.0082046   -0.0123080   -0.0000000
 H    2.3106322    2.3498626    0.0000000  0.00    0.0036244   -0.0001467   -0.0000000
 H    3.0703513    0.8141404    0.0000000  0.00    0.0054001    0.0091852   -0.0000000
 N    1.8871245   -1.5697358    0.0000000  0.00    0.0001151    0.0035214   -0.0000000
 O    3.0095843   -1.1617310    0.0000000  0.00    0.0003682   -0.0011664   -0.0000000
 O    1.6081759   -2.7181499    0.0000000  0.00    0.0013326   -0.0018420   -0.0000000
18
 Energy =    -692.9636641963
 C   -0.4811958   -1.1194845    0.0000000  0.00   -0.0023579   -0.0014031   -0.0000000
 C   -1.5488337   -0.2730383    0.0000000  0.00   -0.0009225   -0.0005374   -0.0000000
 C   -1.3602572    1.1087833    0.0000000  0.00   -0.0007493   -0.0003840   -0.0000000
 C   -0.1013940    1.6152326    0.0000000  0.00   -0.0006078    0.0006982   -0.0000000
 C    1.0428212    0.7830862    0.0000000  0.00    0.0009588    0.0023617   -0.0000000
 C    0.8060600   -0.6041227    0.0000000  0.00    0.0036993   -0.0026133   -0.0000000
 H   -0.6256784   -2.1774386    0.0000000  0.00    0.0006247    0.0005757   -0.0000000
 H   -2.2096591    1.7599931    0.0000000  0.00    0.0008624    0.0001475   -0.0000000
 H    0.0458904    2.6780642    0.0000000  0.00    0.0001845   -0.0003652   -0.0000000
 N   -2.8931621   -0.8153374    0.0000000  0.00    0.0025107    0.0010795   -0.0000000
 O   -3.7925853   -0.0402199    0.0000000  0.00   -0.0005690   -0.0000978   -0.0000000
 O   -3.0161653   -1.9941295    0.0000000  0.00   -0.0003890   -0.0002689   -0.0000000
 N    2.2473899    1.3624513    0.0000000  0.00   -0.0031117   -0.0035304   -0.0000000
 H    2.3094452    2.3497451    0.0000000  0.00    0.0013118   -0.0002130   -0.0000000
 H    3.0718560    0.8166026    0.0000000  0.00    0.0010873    0.0018719   -0.0000000
 N    1.8873066   -1.5699446    0.0000000  0.00   -0.0033968    0.0035675   -0.0000000
 O    3.0096198   -1.1618025    0.0000000  0.00    0.0008402    0.0000644   -0.0000000
 O    1.6085416   -2.7184403    0.0000000  0.00    0.0000243   -0.0009532   -0.0000000
18
 Energy =    -692.9636642472
 C   -0.4812642   -1.1195913    0.0000000  0.00   -0.0008130    0.0002454   -0.0000000
 C   -1.5488337   -0.2730950    0.0000000  0.00   -0.0006377   -0.0002527   -0.0000000
 C   -1.3602521    1.1087427    0.0000000  0.00    0.0003122   -0.0000551   -0.0000000
 C   -0.1014051    1.6152058    0.0000000  0.00   -0.0002875    0.0001113   -0.0000000
 C    1.0428208    0.7830309    0.0000000  0.00    0.0001243    0.0015560   -0.0000000
 C    0.8060351   -0.6041598    0.0000000  0.00    0.0016894   -0.0018687   -0.0000000
 H   -0.6256658   -2.1775281    0.0000000  0.00    0.0003203    0.0001755   -0.0000000
 H   -2.2095368    1.7600584    0.0000000  0.00    0.0001284    0.0000283   -0.0000000
 H    0.0459044    2.6780212    0.0000000  0.00    0.0001212   -0.0001250   -0.0000000
 N   -2.8930963   -0.8153196    0.0000000  0.00    0.0002466    0.0001742   -0.0000000
 O   -3.7925453   -0.0402099    0.0000000  0.00    0.0000080   -0.0000330   -0.0000000
 O   -3.0161681   -1.9941186    0.0000000  0.00   -0.0000204    0.0000247   -0.0000000
 N    2.2473545    1.3623480    0.0000000  0.00   -0.0013834   -0.0011009   -0.0000000
 H    2.3094397    2.3496413    0.0000000  0.00    0.0006493    0.0000035   -0.0000000
 H    3.0720442    0.8168567    0.0000000  0.00    0.0002899    0.0004936   -0.0000000
 N    1.8871844   -1.5698245    0.0000000  0.00   -0.0010359    0.0012117   -0.0000000
 O    3.0095269   -1.1616981    0.0000000  0.00    0.0000916   -0.0001911   -0.0000000
 O    1.6084573   -2.7183601    0.0000000  0.00    0.0001966   -0.0003975   -0.0000000
