16
 Energy =    -491.4104171585
 C   -0.0983196    0.6760583    1.2038609  0.00    0.0001604   -0.0003766   -0.0000485
 C   -0.1357949    1.3411291   -0.0127391  0.00   -0.0000690    0.0002504   -0.0000662
 C   -0.0678737    0.6561403   -1.2169109  0.00    0.0001070   -0.0000958   -0.0000054
 C    0.0412708   -0.7241145   -1.1970651  0.00   -0.0000805   -0.0000480   -0.0000173
 C    0.0843002   -1.4253718    0.0127738  0.00    0.0000750   -0.0002924    0.0004810
 C    0.0111276   -0.7043163    1.2094631  0.00   -0.0001924    0.0004926    0.0000743
 H   -0.1529228    1.2388618    2.1258542  0.00   -0.0000425    0.0000467   -0.0000251
 H   -0.0992020    1.2037319   -2.1490929  0.00    0.0000138   -0.0000397   -0.0000325
 H    0.0901653   -1.2701472   -2.1333879  0.00    0.0000334    0.0001532   -0.0001203
 H    0.0365341   -1.2347217    2.1556468  0.00    0.0000326   -0.0002087   -0.0000634
 N   -0.2479235    2.7960290   -0.0261287  0.00    0.0001770   -0.0000876    0.0000222
 O   -0.2764090    3.3568117   -1.1197922  0.00   -0.0001704   -0.0000134    0.0000592
 O   -0.3068053    3.3744909    1.0570619  0.00   -0.0000120    0.0000191   -0.0000539
 N    0.1349508   -2.8089829    0.0247915  0.00    0.0000563    0.0001623   -0.0003534
 H    0.5041031   -3.2446640   -0.8078121  0.00   -0.0000895   -0.0000676   -0.0000552
 H    0.4827991   -3.2309345    0.8734766  0.00    0.0000008    0.0001055    0.0002043
16
 Energy =    -491.4104216701
 C   -0.0980457    0.6760823    1.2038608  0.00    0.0000455   -0.0001140    0.0000201
 C   -0.1356054    1.3411546   -0.0127390  0.00   -0.0004083    0.0000547   -0.0000281
 C   -0.0675925    0.6561675   -1.2169074  0.00    0.0001320    0.0000526   -0.0000553
 C    0.0414845   -0.7240896   -1.1970607  0.00    0.0001728   -0.0000830    0.0000874
 C    0.0843478   -1.4253628    0.0127815  0.00   -0.0001583   -0.0001676    0.0001998
 C    0.0112678   -0.7042957    1.2094678  0.00    0.0000352    0.0002925    0.0000210
 H   -0.1525510    1.2388987    2.1258524  0.00   -0.0001824    0.0000253   -0.0000212
 H   -0.0987820    1.2037623   -2.1490925  0.00   -0.0001568   -0.0000459   -0.0000211
 H    0.0905350   -1.2700914   -2.1333950  0.00   -0.0000992    0.0000979   -0.0000701
 H    0.0366732   -1.2347203    2.1556434  0.00   -0.0000022   -0.0001368   -0.0000600
 N   -0.2482110    2.7960137   -0.0261304  0.00    0.0002106   -0.0000719    0.0000287
 O   -0.2772400    3.3567579   -1.1197979  0.00    0.0001631    0.0000262   -0.0000152
 O   -0.3070002    3.3744834    1.0570600  0.00    0.0000639    0.0000278    0.0000118
 N    0.1346597   -2.8089788    0.0247871  0.00    0.0002472   -0.0000050   -0.0001596
 H    0.5036766   -3.2447717   -0.8078201  0.00   -0.0000602   -0.0000292    0.0000031
 H    0.4823831   -3.2310101    0.8734899  0.00   -0.0000029    0.0000765    0.0000588
16
 Energy =    -491.4104224628
 C   -0.0983070    0.6760527    1.2038559  0.00   -0.0001035    0.0000340    0.0000295
 C   -0.1357581    1.3411392   -0.0127421  0.00    0.0000942    0.0000011    0.0000065
 C   -0.0678189    0.6561415   -1.2169095  0.00    0.0000441    0.0001078   -0.0000504
 C    0.0413439   -0.7241068   -1.1970592  0.00    0.0000284   -0.0001240    0.0001006
 C    0.0843193   -1.4253733    0.0127880  0.00    0.0000718   -0.0000482   -0.0000189
 C    0.0110991   -0.7043126    1.2094686  0.00   -0.0000482    0.0001064    0.0000335
 H   -0.1531001    1.2388515    2.1258414  0.00    0.0001998    0.0000449   -0.0000096
 H   -0.0992108    1.2037132   -2.1491016  0.00    0.0001462   -0.0000118   -0.0000099
 H    0.0903740   -1.2700946   -2.1334039  0.00   -0.0000851    0.0000564   -0.0000238
 H    0.0364932   -1.2347555    2.1556363  0.00   -0.0000607   -0.0000791   -0.0000573
 N   -0.2478907    2.7960314   -0.0261252  0.00   -0.0000543   -0.0000518    0.0000278
 O   -0.2769047    3.3567783   -1.1197908  0.00   -0.0000896    0.0000041   -0.0000600
 O   -0.3063523    3.3745280    1.0570680  0.00   -0.0001267    0.0000023    0.0000433
 N    0.1349398   -2.8089725    0.0247925  0.00    0.0001157   -0.0001159   -0.0000127
 H    0.5040117   -3.2447064   -0.8078224  0.00   -0.0000742    0.0000146    0.0000533
 H    0.4827616   -3.2309141    0.8735041  0.00   -0.0000580    0.0000593   -0.0000519
16
 Energy =    -491.4104226759
 C   -0.0982621    0.6760582    1.2038579  0.00   -0.0000173   -0.0000156    0.0000160
 C   -0.1357173    1.3411418   -0.0127410  0.00    0.0000528    0.0000130   -0.0000061
 C   -0.0677434    0.6561475   -1.2169084  0.00   -0.0000361    0.0000650   -0.0000298
 C    0.0413021   -0.7241116   -1.1970580  0.00   -0.0000937   -0.0001017    0.0000706
 C    0.0842952   -1.4253778    0.0127874  0.00    0.0001702   -0.0000712    0.0000205
 C    0.0110761   -0.7043144    1.2094674  0.00   -0.0000822    0.0001167    0.0000311
 H   -0.1528928    1.2388708    2.1258447  0.00   -0.0000808    0.0000173   -0.0000131
 H   -0.0989861    1.2037299   -2.1490991  0.00   -0.0001019   -0.0000334   -0.0000113
 H    0.0901056   -1.2701153   -2.1334048  0.00    0.0002178    0.0000720   -0.0000272
 H    0.0363696   -1.2347668    2.1556318  0.00    0.0001013   -0.0000682   -0.0000418
 N   -0.2479479    2.7960263   -0.0261257  0.00   -0.0000388   -0.0000455    0.0000187
 O   -0.2768694    3.3567796   -1.1197916  0.00   -0.0001479   -0.0000023   -0.0000276
 O   -0.3065787    3.3745100    1.0570661  0.00    0.0002108    0.0000298    0.0000208
 N    0.1349762   -2.8089766    0.0247956  0.00   -0.0000413   -0.0000425   -0.0000385
 H    0.5040477   -3.2446990   -0.8078235  0.00   -0.0000589    0.0000146    0.0000366
 H    0.4828252   -3.2309024    0.8735012  0.00   -0.0000540    0.0000521   -0.0000188
