19
 Energy =   -1039.4980066509
 C    0.5049685   -1.0684227   -0.0100869  0.00    0.0334496   -0.1530666    0.0023906
 C    1.6761105   -0.3510205   -0.0529214  0.00   -0.0381220    0.0935825    0.0001784
 C    1.6625379    1.0385678   -0.0610765  0.00    0.2297069   -0.0762005   -0.0036412
 C    0.4680523    1.7062945   -0.0377007  0.00   -0.1885034   -0.0004619    0.0092976
 C   -0.7578048    1.0172595   -0.0077371  0.00    0.0571439   -0.0783720   -0.0258781
 C   -0.7045996   -0.3943178    0.0190278  0.00   -0.0841035    0.1156284    0.0183848
 H    0.5250015   -2.1482081   -0.0036453  0.00   -0.0051325   -0.0560282    0.0013494
 H    2.5997555    1.5738623   -0.0921239  0.00    0.0377774    0.0278497   -0.0018449
 H    0.4552476    2.7882906   -0.0531869  0.00    0.0021564    0.0461893   -0.0021255
 N    2.9509736   -1.0577621   -0.0843038  0.00   -0.2466715    0.1563430    0.0063210
 O    3.9630085   -0.3867138   -0.1232538  0.00    0.3928273    0.3441521   -0.0166739
 O    2.9269175   -2.2703986   -0.0680862  0.00   -0.0850007   -0.5338516    0.0086814
 N   -1.9212390    1.7083866    0.0239821  0.00   -0.1277160    0.0486227    0.0781029
 H   -1.8868955    2.7021535   -0.1168172  0.00    0.0047868    0.0614299   -0.0222420
 H   -2.7765885    1.2322295   -0.2205974  0.00   -0.0389094   -0.0158930   -0.0289181
 S   -2.1603829   -1.3686709    0.1333728  0.00    0.0327684    0.0519389    0.0645862
 O   -3.2331451   -0.6964694   -0.5498355  0.00   -0.0783807    0.0895544   -0.0640718
 O   -1.8430596   -2.7316965   -0.1519818  0.00    0.0643394   -0.1500753   -0.0213792
 H   -2.4488585   -1.2933639    1.4569718  0.00    0.0375837    0.0286580   -0.0025179
19
 Energy =   -1039.4989817501
 C    0.5063586   -1.0745290   -0.0106180  0.00    0.0159529   -0.0669583   -0.0037480
 C    1.6788426   -0.3533708   -0.0552723  0.00   -0.0191420    0.0557992   -0.0011123
 C    1.6674335    1.0372973   -0.0679292  0.00    0.0894134   -0.0386961   -0.0067557
 C    0.4639212    1.7042675   -0.0420061  0.00   -0.0894350   -0.0083037   -0.0065470
 C   -0.7639008    1.0175233   -0.0040574  0.00    0.0758311   -0.0492600   -0.0007119
 C   -0.7043760   -0.3932937    0.0145468  0.00   -0.0105171    0.0553224    0.0174879
 H    0.5246212   -2.1569323    0.0017146  0.00   -0.0096413   -0.0019419   -0.0042865
 H    2.6055008    1.5751367   -0.1052146  0.00   -0.0020488    0.0092530    0.0005737
 H    0.4503471    2.7883293   -0.0643940  0.00    0.0087527    0.0120988    0.0079576
 N    2.9564225   -1.0622237   -0.0859285  0.00   -0.0657706    0.0447390    0.0030267
 O    3.9753826   -0.3809808   -0.1275253  0.00    0.0668758    0.0368375   -0.0027958
 O    2.9254721   -2.2864714   -0.0669150  0.00    0.0023310   -0.0827395    0.0010834
 N   -1.9317891    1.7109356    0.0616832  0.00   -0.0704576    0.0036016    0.0506800
 H   -1.8956824    2.7066418   -0.0831565  0.00   -0.0011050    0.0103464   -0.0172756
 H   -2.7889965    1.2383843   -0.1911994  0.00   -0.0020976    0.0030895   -0.0370084
 S   -2.1571206   -1.3680852    0.1196126  0.00   -0.0034037    0.0208255    0.0299198
 O   -3.2106222   -0.7211664   -0.6202450  0.00   -0.0283536    0.0489979   -0.0225192
 O   -1.8235479   -2.7414199   -0.1042390  0.00    0.0236689   -0.0708139   -0.0099527
 H   -2.4782664   -1.2400425    1.4311433  0.00    0.0191466    0.0178028    0.0019839
19
 Energy =   -1039.4981105519
 C    0.5026133   -1.0816284   -0.0552874  0.00    0.0129743    0.0257367    0.0177931
 C    1.6752496   -0.3539023   -0.0622864  0.00   -0.0004123    0.0002822   -0.0375236
 C    1.6664508    1.0361433   -0.0079273  0.00   -0.0375458   -0.0012293    0.0269456
 C    0.4546822    1.7005296    0.0260285  0.00    0.0241688   -0.0001070    0.0264556
 C   -0.7722003    1.0134649   -0.0076600  0.00    0.0420480    0.0190085   -0.0952652
 C   -0.7074172   -0.3946030   -0.0004927  0.00    0.0257806   -0.0376927    0.0409850
 H    0.5180222   -2.1644803   -0.1029572  0.00   -0.0084244    0.0247811    0.0453171
 H    2.6047772    1.5772177    0.0005677  0.00   -0.0242183   -0.0049887    0.0069193
 H    0.4402825    2.7850803    0.0824395  0.00    0.0096393   -0.0126537   -0.0429983
 N    2.9548397   -1.0612331   -0.1203747  0.00    0.0644113   -0.0370492   -0.0131548
 O    3.9791433   -0.3730012   -0.1254420  0.00   -0.1381176   -0.1417602    0.0018826
 O    2.9211586   -2.2928878   -0.1592777  0.00    0.0459750    0.1948869    0.0049989
 N   -1.9503374    1.7035157   -0.0372472  0.00    0.0102490    0.0357710    0.0725900
 H   -1.8940086    2.6959512   -0.2085096  0.00    0.0130077   -0.0132508   -0.0021348
 H   -2.7651559    1.2298046   -0.4067892  0.00    0.0051468   -0.0130393    0.0447256
 S   -2.1541281   -1.3604056    0.1929105  0.00   -0.0248805   -0.0026513   -0.0900594
 O   -3.2439031   -0.7036482   -0.4875569  0.00   -0.0121077   -0.0545106   -0.0139055
 O   -1.8406907   -2.7396721   -0.0407560  0.00   -0.0207006    0.0084142    0.0084071
 H   -2.3893781   -1.2162453    1.5206181  0.00    0.0130065    0.0100521   -0.0019784
19
 Energy =   -1039.4986513360
 C    0.5035446   -1.0806063   -0.0443600  0.00    0.0072318    0.0134802    0.0151237
 C    1.6756831   -0.3532962   -0.0603811  0.00   -0.0020178    0.0033980   -0.0290206
 C    1.6670484    1.0366285   -0.0186600  0.00   -0.0168800   -0.0047740    0.0182614
 C    0.4568416    1.7012335    0.0129197  0.00    0.0045175    0.0028012    0.0147577
 C   -0.7699782    1.0141040   -0.0090618  0.00    0.0413353    0.0004727   -0.0511292
 C   -0.7066950   -0.3947035    0.0043052  0.00    0.0187168   -0.0146763    0.0196748
 H    0.5193735   -2.1635392   -0.0759391  0.00   -0.0065268    0.0166716    0.0299935
 H    2.6050309    1.5774941   -0.0172472  0.00   -0.0163971   -0.0021650    0.0037948
 H    0.4431907    2.7861758    0.0537756  0.00    0.0075549   -0.0089114   -0.0316353
 N    2.9546010   -1.0607954   -0.1158666  0.00    0.0290998   -0.0170175   -0.0043702
 O    3.9773875   -0.3751354   -0.1296232  0.00   -0.0711462   -0.0771075    0.0019715
 O    2.9222399   -2.2901144   -0.1439507  0.00    0.0271534    0.1022635    0.0007732
 N   -1.9469773    1.7055157   -0.0145610  0.00   -0.0024840    0.0263711    0.0582192
 H   -1.8925626    2.6979450   -0.1848485  0.00    0.0080970   -0.0076356   -0.0054691
 H   -2.7695954    1.2332899   -0.3675723  0.00    0.0002444   -0.0119495    0.0284676
 S   -2.1554505   -1.3628010    0.1775208  0.00   -0.0221789   -0.0012508   -0.0584417
 O   -3.2389749   -0.7095139   -0.5156648  0.00   -0.0049322   -0.0316193   -0.0142773
 O   -1.8378449   -2.7412902   -0.0532254  0.00   -0.0109460    0.0012462    0.0043863
 H   -2.4068624   -1.2205910    1.5024403  0.00    0.0095583    0.0104023   -0.0010804
19
 Energy =   -1039.4991959411
 C    0.5068788   -1.0802110   -0.0209387  0.00   -0.0000441    0.0079488    0.0048780
 C    1.6777894   -0.3525334   -0.0611414  0.00    0.0010854    0.0008378    0.0077220
 C    1.6688070    1.0373093   -0.0537070  0.00   -0.0069883   -0.0061844    0.0003639
 C    0.4596699    1.7019082   -0.0192120  0.00   -0.0019529    0.0067784   -0.0123308
 C   -0.7652447    1.0134282   -0.0027532  0.00    0.0144265    0.0024189    0.0210766
 C   -0.7027942   -0.3945889    0.0193402  0.00    0.0105363   -0.0126101   -0.0303177
 H    0.5226680   -2.1628134   -0.0222594  0.00   -0.0016041    0.0038533    0.0052346
 H    2.6052520    1.5787934   -0.0816822  0.00   -0.0042004    0.0003410    0.0052632
 H    0.4463785    2.7872215   -0.0174787  0.00    0.0044227   -0.0043758   -0.0064813
 N    2.9567212   -1.0602974   -0.0970154  0.00   -0.0007008    0.0003619   -0.0103459
 O    3.9779621   -0.3775836   -0.1292475  0.00   -0.0066057   -0.0084544    0.0013845
 O    2.9268855   -2.2874168   -0.0920457  0.00    0.0035352    0.0098747    0.0006066
 N   -1.9426601    1.7035013    0.0505569  0.00   -0.0027275    0.0155602    0.0287971
 H   -1.8964142    2.6953971   -0.1243547  0.00   -0.0008051   -0.0016009   -0.0082331
 H   -2.7793795    1.2301889   -0.2663714  0.00    0.0037060    0.0009327   -0.0037797
 S   -2.1584055   -1.3620796    0.1386386  0.00   -0.0072105   -0.0109063   -0.0017247
 O   -3.2185873   -0.7042046   -0.5855479  0.00    0.0034075   -0.0155759   -0.0048805
 O   -1.8363766   -2.7397785   -0.0909028  0.00   -0.0032665    0.0071790    0.0028760
 H   -2.4491504   -1.2262408    1.4561223  0.00   -0.0050138    0.0036214   -0.0001086
19
 Energy =   -1039.4992170413
 C    0.5072807   -1.0805732   -0.0127847  0.00   -0.0048037    0.0088961   -0.0008394
 C    1.6777434   -0.3523616   -0.0528276  0.00    0.0011687    0.0026859   -0.0211008
 C    1.6688452    1.0369157   -0.0392809  0.00   -0.0014035   -0.0045988    0.0119367
 C    0.4595561    1.7015438   -0.0134249  0.00   -0.0076476    0.0010420   -0.0070252
 C   -0.7646833    1.0129327    0.0067789  0.00    0.0379667   -0.0202533   -0.0021973
 C   -0.7026378   -0.3955996    0.0216062  0.00    0.0163546   -0.0022177    0.0068089
 H    0.5231452   -2.1629020   -0.0087101  0.00   -0.0019389   -0.0006352   -0.0072088
 H    2.6051986    1.5787731   -0.0467829  0.00   -0.0002457    0.0008556   -0.0256572
 H    0.4468547    2.7866196   -0.0257387  0.00    0.0025730   -0.0009096    0.0168653
 N    2.9555193   -1.0596051   -0.1203388  0.00    0.0070649   -0.0039858    0.0310169
 O    3.9763275   -0.3772058   -0.1614973  0.00   -0.0019298    0.0017513   -0.0018142
 O    2.9258713   -2.2864653   -0.1303299  0.00   -0.0026573    0.0017689   -0.0028510
 N   -1.9421113    1.7041382    0.0699860  0.00   -0.0225741   -0.0157193    0.0171307
 H   -1.8911010    2.6941286   -0.1147249  0.00   -0.0117017    0.0039759   -0.0058989
 H   -2.7744516    1.2337997   -0.2626840  0.00   -0.0055791    0.0037244   -0.0146090
 S   -2.1583854   -1.3652779    0.1344278  0.00   -0.0176247   -0.0043640   -0.0068225
 O   -3.1954969   -0.7476914   -0.6556887  0.00    0.0156733    0.0125480    0.0115770
 O   -1.8229275   -2.7501124   -0.0217239  0.00    0.0003289    0.0100506   -0.0002131
 H   -2.4945473   -1.1710570    1.4337383  0.00   -0.0030242    0.0053849    0.0009020
19
 Energy =   -1039.4992359064
 C    0.5078400   -1.0810096   -0.0214141  0.00   -0.0046690    0.0069541   -0.0004391
 C    1.6779419   -0.3523855   -0.0654829  0.00    0.0005120    0.0023012   -0.0012370
 C    1.6681829    1.0368235   -0.0680408  0.00   -0.0008430   -0.0028552   -0.0057952
 C    0.4595200    1.7014300   -0.0188402  0.00   -0.0079746   -0.0015000    0.0008669
 C   -0.7638040    1.0122339    0.0151823  0.00    0.0384711   -0.0218946   -0.0017341
 C   -0.7017042   -0.3961741    0.0184413  0.00    0.0138035   -0.0000449    0.0027115
 H    0.5234903   -2.1632976   -0.0211115  0.00   -0.0008768   -0.0016403    0.0059258
 H    2.6027572    1.5790747   -0.1213831  0.00    0.0026199    0.0005819    0.0235688
 H    0.4474403    2.7864793   -0.0125833  0.00    0.0003932    0.0002122   -0.0129415
 N    2.9571517   -1.0593908   -0.0982503  0.00    0.0080961   -0.0049178   -0.0197423
 O    3.9780748   -0.3768397   -0.1344271  0.00   -0.0030494    0.0011842    0.0014598
 O    2.9285388   -2.2862894   -0.0867844  0.00   -0.0027283    0.0026962    0.0023607
 N   -1.9418310    1.7019211    0.0988829  0.00   -0.0204433   -0.0173015    0.0157719
 H   -1.8920198    2.6917453   -0.0878237  0.00   -0.0135455    0.0055507   -0.0040646
 H   -2.7740450    1.2336225   -0.2373259  0.00   -0.0081620    0.0049622   -0.0158803
 S   -2.1592041   -1.3645519    0.1236042  0.00   -0.0144081   -0.0030225   -0.0025261
 O   -3.1891746   -0.7478811   -0.6763316  0.00    0.0131834    0.0157192    0.0128477
 O   -1.8239531   -2.7500988   -0.0259878  0.00    0.0015872    0.0086602   -0.0018853
 H   -2.5052022   -1.1654121    1.4196760  0.00   -0.0019666    0.0043546    0.0007323
19
 Energy =   -1039.4993029677
 C    0.5098050   -1.0827460   -0.0183198  0.00   -0.0026194    0.0096830    0.0042051
 C    1.6795374   -0.3528749   -0.0636597  0.00   -0.0000314    0.0015833   -0.0006195
 C    1.6691228    1.0366511   -0.0587388  0.00   -0.0097935   -0.0024574    0.0045670
 C    0.4592687    1.7007336   -0.0144465  0.00    0.0013066    0.0008344   -0.0009956
 C   -0.7628416    1.0097810    0.0164663  0.00    0.0113772    0.0071234   -0.0178112
 C   -0.6991608   -0.3971069    0.0221335  0.00    0.0122836   -0.0224559    0.0045014
 H    0.5255623   -2.1651948   -0.0130678  0.00   -0.0005795    0.0013458   -0.0040637
 H    2.6042316    1.5796914   -0.0949673  0.00   -0.0009837   -0.0012763    0.0031608
 H    0.4458599    2.7859093   -0.0148199  0.00    0.0016443   -0.0024171   -0.0011865
 N    2.9591297   -1.0589897   -0.1079275  0.00    0.0155685   -0.0080073   -0.0039847
 O    3.9797400   -0.3750218   -0.1456878  0.00   -0.0181799   -0.0144676    0.0007532
 O    2.9308539   -2.2865194   -0.1035187  0.00    0.0019176    0.0234416    0.0002943
 N   -1.9457469    1.6945250    0.0909138  0.00    0.0013199    0.0032206    0.0147704
 H   -1.8995868    2.6840958   -0.0996343  0.00   -0.0060718    0.0023662    0.0000027
 H   -2.7723960    1.2219856   -0.2541502  0.00   -0.0003161    0.0046639   -0.0090604
 S   -2.1604140   -1.3584599    0.1279895  0.00   -0.0014822   -0.0087507    0.0050558
 O   -3.1873783   -0.7311060   -0.6674784  0.00    0.0014187   -0.0073566    0.0026193
 O   -1.8330730   -2.7454415   -0.0263295  0.00   -0.0035375    0.0116762   -0.0024170
 H   -2.5025135   -1.1599118    1.4252432  0.00   -0.0032415    0.0012502    0.0002086
19
 Energy =   -1039.4992961012
 C    0.5096981   -1.0831340   -0.0286867  0.00   -0.0020817    0.0022305   -0.0061709
 C    1.6794927   -0.3531515   -0.0643877  0.00   -0.0010147    0.0043952   -0.0015227
 C    1.6688087    1.0361090   -0.0499483  0.00    0.0016643   -0.0026824    0.0038762
 C    0.4591281    1.7003190   -0.0156482  0.00   -0.0062286    0.0001769   -0.0105637
 C   -0.7627699    1.0091080    0.0084446  0.00    0.0091642    0.0015697    0.0097608
 C   -0.6990791   -0.3982126    0.0153015  0.00    0.0053178   -0.0083819    0.0055933
 H    0.5251548   -2.1654674   -0.0396041  0.00   -0.0004456   -0.0009841    0.0131703
 H    2.6043931    1.5790228   -0.0690484  0.00    0.0004622   -0.0002198   -0.0082772
 H    0.4457587    2.7853327   -0.0215147  0.00    0.0014029   -0.0000874    0.0107488
 N    2.9592485   -1.0588220   -0.1092859  0.00    0.0029962   -0.0006062   -0.0016971
 O    3.9794256   -0.3751022   -0.1388946  0.00    0.0008636    0.0019181    0.0005887
 O    2.9311673   -2.2856207   -0.1134572  0.00   -0.0016448   -0.0021285   -0.0005846
 N   -1.9461453    1.6933726    0.0878297  0.00   -0.0037192   -0.0024016    0.0022048
 H   -1.9003909    2.6843164   -0.0961084  0.00   -0.0034129    0.0015244   -0.0007790
 H   -2.7718745    1.2237913   -0.2637590  0.00   -0.0000982    0.0028447   -0.0063876
 S   -2.1601555   -1.3586278    0.1357255  0.00   -0.0024712   -0.0013021   -0.0099093
 O   -3.1893075   -0.7408275   -0.6640764  0.00   -0.0021731   -0.0012485    0.0018576
 O   -1.8330165   -2.7468906   -0.0043334  0.00   -0.0006535    0.0020457   -0.0021881
 H   -2.4995364   -1.1455157    1.4314518  0.00    0.0020722    0.0033372    0.0002796
19
 Energy =   -1039.4993062107
 C    0.5102987   -1.0833331   -0.0159140  0.00   -0.0031464   -0.0014669   -0.0008207
 C    1.6795379   -0.3529855   -0.0604192  0.00    0.0001798    0.0035230   -0.0111494
 C    1.6685849    1.0360628   -0.0453280  0.00    0.0043380   -0.0016844   -0.0037788
 C    0.4590058    1.7001802   -0.0070164  0.00   -0.0067602   -0.0009244    0.0049498
 C   -0.7627043    1.0088214    0.0108038  0.00    0.0082711   -0.0034360    0.0112016
 C   -0.6987715   -0.3989155    0.0212982  0.00    0.0011821    0.0032070    0.0049649
 H    0.5265470   -2.1656864   -0.0093324  0.00   -0.0004876   -0.0009275   -0.0069208
 H    2.6038966    1.5791295   -0.0709657  0.00    0.0011438   -0.0000382   -0.0015090
 H    0.4461264    2.7851214    0.0020183  0.00    0.0001379    0.0007960   -0.0055080
 N    2.9589123   -1.0582511   -0.1218002  0.00    0.0000706    0.0009352    0.0154320
 O    3.9784577   -0.3743743   -0.1606361  0.00    0.0051377    0.0057231   -0.0015469
 O    2.9309279   -2.2848635   -0.1294478  0.00   -0.0022879   -0.0078848   -0.0011882
 N   -1.9470785    1.6932802    0.0829294  0.00   -0.0045756   -0.0048320   -0.0007468
 H   -1.8988608    2.6840698   -0.1020049  0.00   -0.0019215    0.0003428   -0.0011969
 H   -2.7679953    1.2252396   -0.2820504  0.00   -0.0014016    0.0004488   -0.0007219
 S   -2.1607095   -1.3593419    0.1344591  0.00   -0.0055478    0.0029653   -0.0008910
 O   -3.1842302   -0.7457624   -0.6757030  0.00    0.0027237    0.0021479    0.0004993
 O   -1.8320476   -2.7479393    0.0024546  0.00    0.0018882   -0.0007771   -0.0007617
 H   -2.5098977   -1.1404519    1.4266549  0.00    0.0010557    0.0018823   -0.0003075
19
 Energy =   -1039.4993192219
 C    0.5101807   -1.0832896   -0.0199309  0.00   -0.0023936    0.0012653   -0.0002822
 C    1.6795295   -0.3529121   -0.0648552  0.00    0.0003280    0.0019175    0.0041431
 C    1.6686222    1.0362402   -0.0538483  0.00   -0.0001016   -0.0007246   -0.0000069
 C    0.4589198    1.7003695   -0.0120293  0.00   -0.0028100   -0.0009064   -0.0009876
 C   -0.7626035    1.0089771    0.0147485  0.00    0.0068944   -0.0003112   -0.0028432
 C   -0.6986471   -0.3985234    0.0220231  0.00    0.0026186   -0.0020665    0.0005070
 H    0.5261359   -2.1657076   -0.0172117  0.00   -0.0001174    0.0000788   -0.0017381
 H    2.6038297    1.5793373   -0.0842206  0.00    0.0002954   -0.0005099   -0.0004514
 H    0.4458030    2.7854027   -0.0110836  0.00    0.0005131   -0.0002436    0.0005628
 N    2.9594219   -1.0584248   -0.1127081  0.00    0.0040114   -0.0016905   -0.0008381
 O    3.9793548   -0.3744303   -0.1485354  0.00   -0.0027694   -0.0016320   -0.0001226
 O    2.9314608   -2.2853679   -0.1131486  0.00   -0.0003012    0.0028895   -0.0002994
 N   -1.9469169    1.6930800    0.0913181  0.00   -0.0008657   -0.0008467    0.0020537
 H   -1.8995384    2.6834568   -0.0960079  0.00   -0.0020597    0.0012037    0.0001819
 H   -2.7689876    1.2242546   -0.2700088  0.00   -0.0015460    0.0007947   -0.0013315
 S   -2.1608529   -1.3587253    0.1317310  0.00   -0.0030927   -0.0003684    0.0027266
 O   -3.1857509   -0.7383179   -0.6715352  0.00    0.0016452   -0.0019154    0.0002366
 O   -1.8333984   -2.7466352   -0.0110224  0.00    0.0002605    0.0022055   -0.0010930
 H   -2.5065626   -1.1487841    1.4263254  0.00   -0.0005093    0.0008601   -0.0004177
19
 Energy =   -1039.4993190517
 C    0.5105116   -1.0835449   -0.0192771  0.00   -0.0008050    0.0002520   -0.0012703
 C    1.6798507   -0.3529693   -0.0635773  0.00   -0.0002294    0.0010242   -0.0009245
 C    1.6687879    1.0361298   -0.0524619  0.00   -0.0002661   -0.0002312   -0.0004422
 C    0.4589341    1.7001967   -0.0110150  0.00   -0.0012155   -0.0001617    0.0010748
 C   -0.7622728    1.0085563    0.0153095  0.00    0.0017268    0.0018495   -0.0007838
 C   -0.6981735   -0.3988160    0.0228323  0.00    0.0010522   -0.0017058    0.0007027
 H    0.5263831   -2.1659728   -0.0183971  0.00    0.0000422    0.0000924    0.0003023
 H    2.6039643    1.5792674   -0.0833116  0.00    0.0001431   -0.0003838    0.0003641
 H    0.4457968    2.7852172   -0.0092915  0.00    0.0002789   -0.0000938   -0.0004364
 N    2.9597973   -1.0583708   -0.1144002  0.00    0.0017075   -0.0008722    0.0001851
 O    3.9795799   -0.3742914   -0.1507411  0.00   -0.0013188   -0.0007361    0.0003624
 O    2.9318025   -2.2852605   -0.1168649  0.00   -0.0000985    0.0014499    0.0002867
 N   -1.9474865    1.6918474    0.0921593  0.00    0.0004935   -0.0011428    0.0003076
 H   -1.9007536    2.6824984   -0.0943945  0.00   -0.0008288   -0.0001419    0.0004432
 H   -2.7684597    1.2232364   -0.2722464  0.00    0.0001606    0.0009767   -0.0006584
 S   -2.1610535   -1.3581021    0.1321216  0.00   -0.0008464   -0.0002448    0.0007250
 O   -3.1830429   -0.7408423   -0.6771733  0.00    0.0001863   -0.0010502    0.0004707
 O   -1.8333897   -2.7465966   -0.0039267  0.00   -0.0000730    0.0005919   -0.0005059
 H   -2.5107761   -1.1421830    1.4246558  0.00   -0.0001097    0.0005277   -0.0002030
19
 Energy =   -1039.4993194205
 C    0.5105550   -1.0836771   -0.0207586  0.00   -0.0000890   -0.0004194    0.0003992
 C    1.6798772   -0.3529901   -0.0644914  0.00   -0.0001613    0.0005185   -0.0002388
 C    1.6687837    1.0360580   -0.0523749  0.00    0.0001352    0.0000217   -0.0003530
 C    0.4589033    1.7001244   -0.0107511  0.00   -0.0005931    0.0000072    0.0001745
 C   -0.7621525    1.0083781    0.0149444  0.00   -0.0003085    0.0016482    0.0002587
 C   -0.6980462   -0.3990060    0.0219510  0.00   -0.0000442   -0.0003862    0.0009756
 H    0.5264593   -2.1661033   -0.0195857  0.00    0.0000881    0.0000444   -0.0002222
 H    2.6040078    1.5791619   -0.0823125  0.00    0.0000944   -0.0002317    0.0000060
 H    0.4457965    2.7851342   -0.0086067  0.00    0.0001236    0.0000336   -0.0001027
 N    2.9599282   -1.0583450   -0.1146977  0.00    0.0000625   -0.0000279    0.0002547
 O    3.9796690   -0.3742399   -0.1497320  0.00    0.0001330    0.0001912   -0.0000671
 O    2.9319248   -2.2851802   -0.1178464  0.00   -0.0000681   -0.0002551   -0.0000586
 N   -1.9477273    1.6912730    0.0925325  0.00    0.0003866   -0.0013242   -0.0008106
 H   -1.9012447    2.6822582   -0.0924618  0.00   -0.0000297   -0.0004528    0.0003339
 H   -2.7681465    1.2232947   -0.2740152  0.00    0.0003988    0.0004525    0.0001369
 S   -2.1611106   -1.3579447    0.1326194  0.00   -0.0002509    0.0002764   -0.0008284
 O   -3.1827170   -0.7423986   -0.6784094  0.00   -0.0002260   -0.0000978    0.0003060
 O   -1.8334187   -2.7466873   -0.0005291  0.00    0.0000614   -0.0004381   -0.0001102
 H   -2.5113414   -1.1391104    1.4245251  0.00    0.0002873    0.0004395   -0.0000540
19
 Energy =   -1039.4993204593
 C    0.5105756   -1.0837001   -0.0206197  0.00   -0.0001305   -0.0003043   -0.0001737
 C    1.6798753   -0.3529749   -0.0644920  0.00    0.0000041    0.0002499    0.0000138
 C    1.6687845    1.0360654   -0.0524788  0.00    0.0001227    0.0000324    0.0000784
 C    0.4589098    1.7001510   -0.0107327  0.00   -0.0002899   -0.0000684    0.0000059
 C   -0.7621094    1.0083766    0.0150413  0.00   -0.0004257    0.0009537    0.0001970
 C   -0.6980118   -0.3990279    0.0221689  0.00   -0.0000493   -0.0000774    0.0001232
 H    0.5264956   -2.1661243   -0.0196944  0.00    0.0000825    0.0000141    0.0001549
 H    2.6040296    1.5791256   -0.0824889  0.00    0.0000744   -0.0001302   -0.0000255
 H    0.4458138    2.7851609   -0.0087226  0.00    0.0000629    0.0000146   -0.0000334
 N    2.9599444   -1.0583263   -0.1146578  0.00   -0.0002312    0.0000990   -0.0000237
 O    3.9796687   -0.3742078   -0.1497696  0.00    0.0002855    0.0001612    0.0000826
 O    2.9319431   -2.2851593   -0.1177225  0.00    0.0000183   -0.0002969   -0.0000734
 N   -1.9477298    1.6911424    0.0924924  0.00    0.0002004   -0.0006614   -0.0003718
 H   -1.9013434    2.6821906   -0.0920934  0.00    0.0001409   -0.0001546    0.0001495
 H   -2.7680612    1.2232303   -0.2742770  0.00    0.0000912    0.0001308    0.0001607
 S   -2.1611442   -1.3579054    0.1325931  0.00   -0.0001516    0.0000915   -0.0001391
 O   -3.1827213   -0.7423014   -0.6784197  0.00   -0.0001318   -0.0000605   -0.0000141
 O   -1.8335143   -2.7466600   -0.0006112  0.00    0.0001292   -0.0002921   -0.0000975
 H   -2.5114051   -1.1390554    1.4244846  0.00    0.0001978    0.0002986   -0.0000136
